Transcript Start Time:  00:03:02, 31 Aug 2025 Pacific Daylight Time 
Current Directory: "C:\Users\Owner\Documents\GitHub\Cooling_Modelling\Subpack Conjugate Heat Transfer"

Build Time: Jun 16 2025 10:42:46 EDT 
Executable Path: C:/PROGRA~1/ANSYSI~1/ANSYSS~1/v252/fluent/ntbin/win64/fluent.exe

------------------------------------------------------------------------------------------
ID    Hostname         Core  O.S.         PID    Vendor                                  
------------------------------------------------------------------------------------------
n3    LAPTOP-DHFQ1JFI  4/16  Windows-x64  3444   AMD Ryzen 7 6800H with Radeon Graphics  
n2    LAPTOP-DHFQ1JFI  3/16  Windows-x64  14892  AMD Ryzen 7 6800H with Radeon Graphics  
n1    LAPTOP-DHFQ1JFI  2/16  Windows-x64  23908  AMD Ryzen 7 6800H with Radeon Graphics  
n0*   LAPTOP-DHFQ1JFI  1/16  Windows-x64  14184  AMD Ryzen 7 6800H with Radeon Graphics  
host  LAPTOP-DHFQ1JFI        Windows-x64  11340  AMD Ryzen 7 6800H with Radeon Graphics  

MPI Option Selected: intel
Selected system interconnect: default
------------------------------------------------------------------------------------------

Cortex Process ID: 16868 
License Server Path: () 
Reading "C:\Users\Owner\Documents\GitHub\Cooling_Modelling\Subpack Conjugate Heat Transfer\the new test_files\dp0\FFF\Fluent\FFF.5.msh.h5" ...
3D mesh
nodes: 64499
edges: 31978
faces: 64982 
cells: 0 
reading 1 node zones
reading 83 edge zones
reading 81 face zones
generating pointers...done.
extracting boundary entities...
 64499 boundary nodes.
 64982 boundary faces.
 81 boundary face zones.
done.
analyzing boundary connectivity...done.
Fast-loading "C:\PROGRA~1\ANSYSI~1\ANSYSS~1\v252\fluent\fluent25.2.0\\addons\afd\lib\hdfio.bin"
Done.
Writing "C:\Users\Owner\Documents\GitHub\Cooling_Modelling\Subpack Conjugate Heat Transfer\the new test_files\dp0\FFF\Fluent\FFF.5.msh.h5" ...
writing 0 node zones
writing 0 edge zones 
writing 0 face zones 
done.Transcript Stop Time:  00:03:10, 31 Aug 2025 Pacific Daylight Time 
Total Transcript Time: 0 Minute 7 Second.
