Transcript Start Time:  23:07:25, 05 Sep 2025 Mountain Daylight Time 
Current Directory: "C:\Users\sean8"

Build Time: Jun 16 2025 10:42:46 EDT 
Executable Path: C:/PROGRA~1/ANSYSI~1/ANSYSS~1/v252/fluent/ntbin/win64/fluent.exe

---------------------------------------------------------------------------------------
ID    Hostname         Core  O.S.         PID    Vendor                               
---------------------------------------------------------------------------------------
n3    DESKTOP-D190TQ3  4/16  Windows-x64  30784  AMD Ryzen 7 7700X 8-Core Processor   
n2    DESKTOP-D190TQ3  3/16  Windows-x64  4880   AMD Ryzen 7 7700X 8-Core Processor   
n1    DESKTOP-D190TQ3  2/16  Windows-x64  688    AMD Ryzen 7 7700X 8-Core Processor   
n0*   DESKTOP-D190TQ3  1/16  Windows-x64  32744  AMD Ryzen 7 7700X 8-Core Processor   
host  DESKTOP-D190TQ3        Windows-x64  412    AMD Ryzen 7 7700X 8-Core Processor   

MPI Option Selected: intel
Selected system interconnect: default
---------------------------------------------------------------------------------------

Cortex Process ID: 29124 
License Server Path: () 
Reading "C:\Users\sean8\Documents\GitHub\Cooling_Modelling\Subpack Conjugate Heat Transfer\Sean\Subpack_Conjugate_Heat_Transfer_3d_Fan_files\dp0\FFF\Fluent\FFF.3.msh.h5" ...
3D mesh
nodes: 409915
edges: 107169
faces: 221992 
cells: 0 
reading 336 node zones
reading 428 edge zones
reading 251 face zones
generating pointers...done.
extracting boundary entities...
 409915 boundary nodes.
 221992 boundary faces.
 251 boundary face zones.
done.
analyzing boundary connectivity...done.
Fast-loading "C:\PROGRA~1\ANSYSI~1\ANSYSS~1\v252\fluent\fluent25.2.0\\addons\afd\lib\hdfio.bin"
Done.
Writing "C:\Users\sean8\Documents\GitHub\Cooling_Modelling\Subpack Conjugate Heat Transfer\Sean\Subpack_Conjugate_Heat_Transfer_3d_Fan_files\dp0\FFF\Fluent\FFF.3.msh.h5" ...
writing 336 node zones
writing 428 edge zones 
writing 251 face zones 
writing node curvature data
done.Transcript Stop Time:  23:07:28, 05 Sep 2025 Mountain Daylight Time 
Total Transcript Time: 0 Minute 3 Second.
