Transcript Start Time:  16:24:50, 11 Oct 2024 Pacific Daylight Time 
Current Directory: "C:\Users\sean8"

Build Time: May 13 2024 11:24:49 EST 
Executable Path: C:/PROGRA~1/ANSYSI~1/ANSYSS~1/v242/fluent/ntbin/win64/fluent.exe

-------------------------------------------------------------------------------------------------
ID    Hostname         Core  O.S.         PID    Vendor                                          
-------------------------------------------------------------------------------------------------
n0*   DESKTOP-585NICH  1/8  Windows-x64  10200  11th Gen Intel(R) Core(TM) i7-1165G7 @ 2.80GHz  
host  DESKTOP-585NICH       Windows-x64  26916  11th Gen Intel(R) Core(TM) i7-1165G7 @ 2.80GHz  

MPI Option Selected: intel
Selected system interconnect: default
-------------------------------------------------------------------------------------------------

Cortex Process ID: 25188 
License Server Path: () 
Multicore SMT processors detected. Processor affinity set!
Reading setting file in cache: "C:\Users\sean8\Desktop\frucd code\ANSYS SHIT\Angled_Subpack_files\dp0\FFF\Fluent\FFF.set"
Reading "C:\Users\sean8\Desktop\frucd code\ANSYS SHIT\Angled_Subpack_files\dp0\FFF\MECH\FFF.1.msh"...
Buffering for file scan...

    9284 nodes, binary.
   12036 nodes, binary.
   24492 triangular wall faces, zone  1, binary.
  170884 triangular interior faces, zone  2, binary.
   91565 tetrahedral cells, zone  3, binary.



Following contexts active in the case file have been de-activated because of their current context control conditions:
"coupled-pseudo-transient"

Building...
     mesh
     materials,
     interface,
     domains,
	mixture
     zones,
	volume_volume
	interior-volume_volume
	wall-volume_volumeIncomplete sliding interface contact_region_70, skipped.
Incomplete sliding interface contact_region_69, skipped.
Incomplete sliding interface contact_region_68, skipped.
Incomplete sliding interface contact_region_67, skipped.
Incomplete sliding interface contact_region_197-contact_region_232-contact_region_99, skipped.
Incomplete sliding interface contact_region_195-contact_region_230-contact_region_98, skipped.
Incomplete sliding interface contact_region_193-contact_region_228-contact_region_97, skipped.
Incomplete sliding interface contact_region_191-contact_region_226-contact_region_96, skipped.
Incomplete sliding interface contact_region_189-contact_region_224-contact_region_95, skipped.
Incomplete sliding interface contact_region_187-contact_region_222-contact_region_94, skipped.
Incomplete sliding interface contact_region_185-contact_region_220-contact_region_93, skipped.
Incomplete sliding interface contact_region_183-contact_region_218-contact_region_92, skipped.
Incomplete sliding interface contact_region_181-contact_region_216-contact_region_91, skipped.
Incomplete sliding interface contact_region_180-contact_region_64-contact_region_71-contact_region_60-contact_region_61-contact_region_64, skipped.
Incomplete sliding interface contact_region_179-contact_region_214-contact_region_90, skipped.
Incomplete sliding interface contact_region_178, skipped.
Incomplete sliding interface contact_region_177-contact_region_212-contact_region_89, skipped.
Incomplete sliding interface contact_region_176, skipped.
Incomplete sliding interface contact_region_175-contact_region_210-contact_region_88, skipped.
Incomplete sliding interface contact_region_173-contact_region_208-contact_region_87, skipped.
Incomplete sliding interface contact_region_171-contact_region_206-contact_region_86, skipped.
Incomplete sliding interface contact_region_170, skipped.
Incomplete sliding interface contact_region_169-contact_region_204-contact_region_85, skipped.
Incomplete sliding interface contact_region_168, skipped.
Incomplete sliding interface contact_region_167-contact_region_202-contact_region_84, skipped.
Incomplete sliding interface contact_region_165-contact_region_200-contact_region_83, skipped.
Incomplete sliding interface contact_region_163-contact_region_198-contact_region_82, skipped.
Incomplete sliding interface contact_region_161-contact_region_196-contact_region_81, skipped.
Incomplete sliding interface contact_region_16-contact_region_17-contact_region_174-contact_region_18, skipped.
Incomplete sliding interface contact_region_159-contact_region_194-contact_region_80, skipped.
Incomplete sliding interface contact_region_157-contact_region_192-contact_region_79, skipped.
Incomplete sliding interface contact_region_155-contact_region_190-contact_region_78, skipped.
Incomplete sliding interface contact_region_153-contact_region_188-contact_region_77, skipped.
Incomplete sliding interface contact_region_151-contact_region_186-contact_region_76, skipped.
Incomplete sliding interface contact_region_149-contact_region_184-contact_region_75, skipped.
Incomplete sliding interface contact_region_147-contact_region_182-contact_region_74, skipped.
Incomplete sliding interface contact_region_145-contact_region_289-contact_region_307, skipped.
Incomplete sliding interface contact_region_144-contact_region_287-contact_region_306, skipped.
Incomplete sliding interface contact_region_143-contact_region_285-contact_region_305, skipped.
Incomplete sliding interface contact_region_142-contact_region_283-contact_region_304, skipped.
Incomplete sliding interface contact_region_141-contact_region_281-contact_region_303, skipped.
Incomplete sliding interface contact_region_140-contact_region_279-contact_region_302, skipped.
Incomplete sliding interface contact_region_14-contact_region_19-contact_region_308-contact_region_65-contact_region_72-contact_region_62-contact_region_63-contact_region_65, skipped.
Incomplete sliding interface contact_region_139-contact_region_277-contact_region_301, skipped.
Incomplete sliding interface contact_region_138-contact_region_275-contact_region_300, skipped.
Incomplete sliding interface contact_region_137-contact_region_273-contact_region_299, skipped.
Incomplete sliding interface contact_region_136-contact_region_271-contact_region_298, skipped.
Incomplete sliding interface contact_region_135-contact_region_269-contact_region_297, skipped.
Incomplete sliding interface contact_region_134-contact_region_267-contact_region_296, skipped.
Incomplete sliding interface contact_region_133-contact_region_265-contact_region_295, skipped.
Incomplete sliding interface contact_region_132-contact_region_263-contact_region_294, skipped.
Incomplete sliding interface contact_region_131-contact_region_261-contact_region_293, skipped.
Incomplete sliding interface contact_region_130-contact_region_259-contact_region_292, skipped.
Incomplete sliding interface contact_region_129-contact_region_257-contact_region_291, skipped.
Incomplete sliding interface contact_region_128-contact_region_255-contact_region_290, skipped.
Incomplete sliding interface contact_region_127-contact_region_253-contact_region_288, skipped.
Incomplete sliding interface contact_region_126-contact_region_251-contact_region_286, skipped.
Incomplete sliding interface contact_region_125-contact_region_249-contact_region_284, skipped.
Incomplete sliding interface contact_region_124-contact_region_247-contact_region_282, skipped.
Incomplete sliding interface contact_region_123-contact_region_245-contact_region_280, skipped.
Incomplete sliding interface contact_region_122-contact_region_243-contact_region_278, skipped.
Incomplete sliding interface contact_region_121-contact_region_241-contact_region_276, skipped.
Incomplete sliding interface contact_region_120-contact_region_239-contact_region_274, skipped.
Incomplete sliding interface contact_region_119-contact_region_237-contact_region_272, skipped.
Incomplete sliding interface contact_region_118-contact_region_235-contact_region_270, skipped.
Incomplete sliding interface contact_region_117-contact_region_233-contact_region_268, skipped.
Incomplete sliding interface contact_region_116-contact_region_231-contact_region_266, skipped.
Incomplete sliding interface contact_region_115-contact_region_229-contact_region_264, skipped.
Incomplete sliding interface contact_region_114-contact_region_227-contact_region_262, skipped.
Incomplete sliding interface contact_region_113-contact_region_225-contact_region_260, skipped.
Incomplete sliding interface contact_region_112-contact_region_223-contact_region_258, skipped.
Incomplete sliding interface contact_region_111-contact_region_221-contact_region_256, skipped.
Incomplete sliding interface contact_region_110-contact_region_219-contact_region_254, skipped.
Incomplete sliding interface contact_region_11-contact_region_12-contact_region_13-contact_region_172-contact_region_172-contact_region_5-contact_region_8, skipped.
Incomplete sliding interface contact_region_109-contact_region_217-contact_region_252, skipped.
Incomplete sliding interface contact_region_108-contact_region_215-contact_region_250, skipped.
Incomplete sliding interface contact_region_107-contact_region_213-contact_region_248, skipped.
Incomplete sliding interface contact_region_106-contact_region_211-contact_region_246, skipped.
Incomplete sliding interface contact_region_105-contact_region_209-contact_region_244, skipped.
Incomplete sliding interface contact_region_104-contact_region_207-contact_region_242, skipped.
Incomplete sliding interface contact_region_103-contact_region_205-contact_region_240, skipped.
Incomplete sliding interface contact_region_102-contact_region_203-contact_region_238, skipped.
Incomplete sliding interface contact_region_101-contact_region_201-contact_region_236, skipped.
Incomplete sliding interface contact_region_100-contact_region_199-contact_region_234, skipped.
Setting volume_volume (mixture) ... Done.

WARNING: Current Mesh is incompatible with mesh operations defined. Following zones are missing:
	front_fan_duct_front_fan_duct
	ac-20092-aa-negative_terminal_cell_holder_ac-20092-aa-negative_terminal_cell_holder
	cell_placeholder_cell_placeholder
	ac-20091-aa-positive_terminal_cell_holder_ac-20091-aa-positive_terminal_cell_holder
	part3^basic_subpack_geometry_for_cfd_part3^basic_subpack_geometry_for_cfd
	part5^basic_subpack_geometry_for_cfd-1_part5^basic_subpack_geometry_for_cfd
	part5^basic_subpack_geometry_for_cfd_part5^basic_subpack_geometry_for_cfd
	part6^basic_subpack_geometry_for_cfd-0_part6^basic_subpack_geometry_for_cfd
	part6^basic_subpack_geometry_for_cfd_part6^basic_subpack_geometry_for_cfd
	part7^basic_subpack_geometry_for_cfd_part7^basic_subpack_geometry_for_cfd
	subpack_side_wall_outlet__subpack_side_wall_outlet_
	subpack_side_wall_inlet___subpack_side_wall_inlet__
	contact_region_70-trg
	contact_region_70-src
	contact_region_69-trg
	contact_region_69-src
	contact_region_68-trg
	contact_region_68-src
	contact_region_67-trg
	contact_region_67-src
	contact_region_197-contact_region_232-contact_region_99-trg-volume_volume
	contact_region_197-contact_region_232-contact_region_99-trg-ac-20092-aa-negative_terminal_cell_holder_ac-20092-aa-negative_terminal_cell_holder
	contact_region_197-contact_region_232-contact_region_99-trg-ac-20091-aa-positive_terminal_cell_holder_ac-20091-aa-positive_terminal_cell_holder
	contact_region_197-contact_region_232-contact_region_99-src
	contact_region_195-contact_region_230-contact_region_98-trg-volume_volume
	contact_region_195-contact_region_230-contact_region_98-trg-ac-20092-aa-negative_terminal_cell_holder_ac-20092-aa-negative_terminal_cell_holder
	contact_region_195-contact_region_230-contact_region_98-trg-ac-20091-aa-positive_terminal_cell_holder_ac-20091-aa-positive_terminal_cell_holder
	contact_region_195-contact_region_230-contact_region_98-src
	contact_region_193-contact_region_228-contact_region_97-trg-volume_volume
	contact_region_193-contact_region_228-contact_region_97-trg-ac-20092-aa-negative_terminal_cell_holder_ac-20092-aa-negative_terminal_cell_holder
	contact_region_193-contact_region_228-contact_region_97-trg-ac-20091-aa-positive_terminal_cell_holder_ac-20091-aa-positive_terminal_cell_holder
	contact_region_193-contact_region_228-contact_region_97-src
	contact_region_191-contact_region_226-contact_region_96-trg-volume_volume
	contact_region_191-contact_region_226-contact_region_96-trg-ac-20092-aa-negative_terminal_cell_holder_ac-20092-aa-negative_terminal_cell_holder
	contact_region_191-contact_region_226-contact_region_96-trg-ac-20091-aa-positive_terminal_cell_holder_ac-20091-aa-positive_terminal_cell_holder
	contact_region_191-contact_region_226-contact_region_96-src
	contact_region_189-contact_region_224-contact_region_95-trg-volume_volume
	contact_region_189-contact_region_224-contact_region_95-trg-ac-20092-aa-negative_terminal_cell_holder_ac-20092-aa-negative_terminal_cell_holder
	contact_region_189-contact_region_224-contact_region_95-trg-ac-20091-aa-positive_terminal_cell_holder_ac-20091-aa-positive_terminal_cell_holder
	contact_region_189-contact_region_224-contact_region_95-src
	contact_region_187-contact_region_222-contact_region_94-trg-volume_volume
	contact_region_187-contact_region_222-contact_region_94-trg-ac-20092-aa-negative_terminal_cell_holder_ac-20092-aa-negative_terminal_cell_holder
	contact_region_187-contact_region_222-contact_region_94-trg-ac-20091-aa-positive_terminal_cell_holder_ac-20091-aa-positive_terminal_cell_holder
	contact_region_187-contact_region_222-contact_region_94-src
	contact_region_185-contact_region_220-contact_region_93-trg-volume_volume
	contact_region_185-contact_region_220-contact_region_93-trg-ac-20092-aa-negative_terminal_cell_holder_ac-20092-aa-negative_terminal_cell_holder
	contact_region_185-contact_region_220-contact_region_93-trg-ac-20091-aa-positive_terminal_cell_holder_ac-20091-aa-positive_terminal_cell_holder
	contact_region_185-contact_region_220-contact_region_93-src
	contact_region_183-contact_region_218-contact_region_92-trg-volume_volume
	contact_region_183-contact_region_218-contact_region_92-trg-ac-20092-aa-negative_terminal_cell_holder_ac-20092-aa-negative_terminal_cell_holder
	contact_region_183-contact_region_218-contact_region_92-trg-ac-20091-aa-positive_terminal_cell_holder_ac-20091-aa-positive_terminal_cell_holder
	contact_region_183-contact_region_218-contact_region_92-src
	contact_region_181-contact_region_216-contact_region_91-trg-volume_volume
	contact_region_181-contact_region_216-contact_region_91-trg-ac-20092-aa-negative_terminal_cell_holder_ac-20092-aa-negative_terminal_cell_holder
	contact_region_181-contact_region_216-contact_region_91-trg-ac-20091-aa-positive_terminal_cell_holder_ac-20091-aa-positive_terminal_cell_holder
	contact_region_181-contact_region_216-contact_region_91-src
	contact_region_180-contact_region_64-contact_region_71-contact_region_60-contact_region_61-contact_region_64-trg-volume_volume
	contact_region_180-contact_region_64-contact_region_71-contact_region_60-contact_region_61-contact_region_64-trg-part3^basic_subpack_geometry_for_cfd_part3^basic_subpack_geometry_for_cfd
	contact_region_180-contact_region_64-contact_region_71-contact_region_60-contact_region_61-contact_region_64-trg-part7^basic_subpack_geometry_for_cfd_part7^basic_subpack_geometry_for_cfd
	contact_region_180-contact_region_64-contact_region_71-contact_region_60-contact_region_61-contact_region_64-src-ac-20091-aa-positive_terminal_cell_holder_ac-20091-aa-positive_terminal_cell_holder
	contact_region_180-contact_region_64-contact_region_71-contact_region_60-contact_region_61-contact_region_64-src-part6^basic_subpack_geometry_for_cfd-0_part6^basic_subpack_geometry_for_cfd
	contact_region_180-contact_region_64-contact_region_71-contact_region_60-contact_region_61-contact_region_64-src-part6^basic_subpack_geometry_for_cfd_part6^basic_subpack_geometry_for_cfd
	contact_region_179-contact_region_214-contact_region_90-trg-volume_volume
	contact_region_179-contact_region_214-contact_region_90-trg-ac-20092-aa-negative_terminal_cell_holder_ac-20092-aa-negative_terminal_cell_holder
	contact_region_179-contact_region_214-contact_region_90-trg-ac-20091-aa-positive_terminal_cell_holder_ac-20091-aa-positive_terminal_cell_holder
	contact_region_179-contact_region_214-contact_region_90-src
	contact_region_178-trg
	contact_region_178-src
	contact_region_177-contact_region_212-contact_region_89-trg-volume_volume
	contact_region_177-contact_region_212-contact_region_89-trg-ac-20092-aa-negative_terminal_cell_holder_ac-20092-aa-negative_terminal_cell_holder
	contact_region_177-contact_region_212-contact_region_89-trg-ac-20091-aa-positive_terminal_cell_holder_ac-20091-aa-positive_terminal_cell_holder
	contact_region_177-contact_region_212-contact_region_89-src
	contact_region_176-trg
	contact_region_176-src
	contact_region_175-contact_region_210-contact_region_88-trg-volume_volume
	contact_region_175-contact_region_210-contact_region_88-trg-ac-20092-aa-negative_terminal_cell_holder_ac-20092-aa-negative_terminal_cell_holder
	contact_region_175-contact_region_210-contact_region_88-trg-ac-20091-aa-positive_terminal_cell_holder_ac-20091-aa-positive_terminal_cell_holder
	contact_region_175-contact_region_210-contact_region_88-src
	contact_region_173-contact_region_208-contact_region_87-trg-volume_volume
	contact_region_173-contact_region_208-contact_region_87-trg-ac-20092-aa-negative_terminal_cell_holder_ac-20092-aa-negative_terminal_cell_holder
	contact_region_173-contact_region_208-contact_region_87-trg-ac-20091-aa-positive_terminal_cell_holder_ac-20091-aa-positive_terminal_cell_holder
	contact_region_173-contact_region_208-contact_region_87-src
	contact_region_171-contact_region_206-contact_region_86-trg-volume_volume
	contact_region_171-contact_region_206-contact_region_86-trg-ac-20092-aa-negative_terminal_cell_holder_ac-20092-aa-negative_terminal_cell_holder
	contact_region_171-contact_region_206-contact_region_86-trg-ac-20091-aa-positive_terminal_cell_holder_ac-20091-aa-positive_terminal_cell_holder
	contact_region_171-contact_region_206-contact_region_86-src
	contact_region_170-trg
	contact_region_170-src
	contact_region_169-contact_region_204-contact_region_85-trg-volume_volume
	contact_region_169-contact_region_204-contact_region_85-trg-ac-20092-aa-negative_terminal_cell_holder_ac-20092-aa-negative_terminal_cell_holder
	contact_region_169-contact_region_204-contact_region_85-trg-ac-20091-aa-positive_terminal_cell_holder_ac-20091-aa-positive_terminal_cell_holder
	contact_region_169-contact_region_204-contact_region_85-src
	contact_region_168-trg
	contact_region_168-src
	contact_region_167-contact_region_202-contact_region_84-trg-volume_volume
	contact_region_167-contact_region_202-contact_region_84-trg-ac-20092-aa-negative_terminal_cell_holder_ac-20092-aa-negative_terminal_cell_holder
	contact_region_167-contact_region_202-contact_region_84-trg-ac-20091-aa-positive_terminal_cell_holder_ac-20091-aa-positive_terminal_cell_holder
	contact_region_167-contact_region_202-contact_region_84-src
	contact_region_165-contact_region_200-contact_region_83-trg-volume_volume
	contact_region_165-contact_region_200-contact_region_83-trg-ac-20092-aa-negative_terminal_cell_holder_ac-20092-aa-negative_terminal_cell_holder
	contact_region_165-contact_region_200-contact_region_83-trg-ac-20091-aa-positive_terminal_cell_holder_ac-20091-aa-positive_terminal_cell_holder
	contact_region_165-contact_region_200-contact_region_83-src
	contact_region_163-contact_region_198-contact_region_82-trg-volume_volume
	contact_region_163-contact_region_198-contact_region_82-trg-ac-20092-aa-negative_terminal_cell_holder_ac-20092-aa-negative_terminal_cell_holder
	contact_region_163-contact_region_198-contact_region_82-trg-ac-20091-aa-positive_terminal_cell_holder_ac-20091-aa-positive_terminal_cell_holder
	contact_region_163-contact_region_198-contact_region_82-src
	contact_region_161-contact_region_196-contact_region_81-trg-volume_volume
	contact_region_161-contact_region_196-contact_region_81-trg-ac-20092-aa-negative_terminal_cell_holder_ac-20092-aa-negative_terminal_cell_holder
	contact_region_161-contact_region_196-contact_region_81-trg-ac-20091-aa-positive_terminal_cell_holder_ac-20091-aa-positive_terminal_cell_holder
	contact_region_161-contact_region_196-contact_region_81-src
	contact_region_16-contact_region_17-contact_region_174-contact_region_18-trg-volume_volume
	contact_region_16-contact_region_17-contact_region_174-contact_region_18-trg-ac-20091-aa-positive_terminal_cell_holder_ac-20091-aa-positive_terminal_cell_holder
	contact_region_16-contact_region_17-contact_region_174-contact_region_18-trg-part3^basic_subpack_geometry_for_cfd_part3^basic_subpack_geometry_for_cfd
	contact_region_16-contact_region_17-contact_region_174-contact_region_18-trg-part7^basic_subpack_geometry_for_cfd_part7^basic_subpack_geometry_for_cfd
	contact_region_16-contact_region_17-contact_region_174-contact_region_18-src
	contact_region_159-contact_region_194-contact_region_80-trg-volume_volume
	contact_region_159-contact_region_194-contact_region_80-trg-ac-20092-aa-negative_terminal_cell_holder_ac-20092-aa-negative_terminal_cell_holder
	contact_region_159-contact_region_194-contact_region_80-trg-ac-20091-aa-positive_terminal_cell_holder_ac-20091-aa-positive_terminal_cell_holder
	contact_region_159-contact_region_194-contact_region_80-src
	contact_region_157-contact_region_192-contact_region_79-trg-volume_volume
	contact_region_157-contact_region_192-contact_region_79-trg-ac-20092-aa-negative_terminal_cell_holder_ac-20092-aa-negative_terminal_cell_holder
	contact_region_157-contact_region_192-contact_region_79-trg-ac-20091-aa-positive_terminal_cell_holder_ac-20091-aa-positive_terminal_cell_holder
	contact_region_157-contact_region_192-contact_region_79-src
	contact_region_155-contact_region_190-contact_region_78-trg-volume_volume
	contact_region_155-contact_region_190-contact_region_78-trg-ac-20092-aa-negative_terminal_cell_holder_ac-20092-aa-negative_terminal_cell_holder
	contact_region_155-contact_region_190-contact_region_78-trg-ac-20091-aa-positive_terminal_cell_holder_ac-20091-aa-positive_terminal_cell_holder
	contact_region_155-contact_region_190-contact_region_78-src
	contact_region_153-contact_region_188-contact_region_77-trg-volume_volume
	contact_region_153-contact_region_188-contact_region_77-trg-ac-20092-aa-negative_terminal_cell_holder_ac-20092-aa-negative_terminal_cell_holder
	contact_region_153-contact_region_188-contact_region_77-trg-ac-20091-aa-positive_terminal_cell_holder_ac-20091-aa-positive_terminal_cell_holder
	contact_region_153-contact_region_188-contact_region_77-src
	contact_region_151-contact_region_186-contact_region_76-trg-volume_volume
	contact_region_151-contact_region_186-contact_region_76-trg-ac-20092-aa-negative_terminal_cell_holder_ac-20092-aa-negative_terminal_cell_holder
	contact_region_151-contact_region_186-contact_region_76-trg-ac-20091-aa-positive_terminal_cell_holder_ac-20091-aa-positive_terminal_cell_holder
	contact_region_151-contact_region_186-contact_region_76-src
	contact_region_149-contact_region_184-contact_region_75-trg-volume_volume
	contact_region_149-contact_region_184-contact_region_75-trg-ac-20092-aa-negative_terminal_cell_holder_ac-20092-aa-negative_terminal_cell_holder
	contact_region_149-contact_region_184-contact_region_75-trg-ac-20091-aa-positive_terminal_cell_holder_ac-20091-aa-positive_terminal_cell_holder
	contact_region_149-contact_region_184-contact_region_75-src
	contact_region_147-contact_region_182-contact_region_74-trg-volume_volume
	contact_region_147-contact_region_182-contact_region_74-trg-ac-20092-aa-negative_terminal_cell_holder_ac-20092-aa-negative_terminal_cell_holder
	contact_region_147-contact_region_182-contact_region_74-trg-ac-20091-aa-positive_terminal_cell_holder_ac-20091-aa-positive_terminal_cell_holder
	contact_region_147-contact_region_182-contact_region_74-src
	contact_region_145-contact_region_289-contact_region_307-trg
	contact_region_145-contact_region_289-contact_region_307-src-volume_volume
	contact_region_145-contact_region_289-contact_region_307-src-ac-20092-aa-negative_terminal_cell_holder_ac-20092-aa-negative_terminal_cell_holder
	contact_region_145-contact_region_289-contact_region_307-src-ac-20091-aa-positive_terminal_cell_holder_ac-20091-aa-positive_terminal_cell_holder
	contact_region_144-contact_region_287-contact_region_306-trg
	contact_region_144-contact_region_287-contact_region_306-src-volume_volume
	contact_region_144-contact_region_287-contact_region_306-src-ac-20092-aa-negative_terminal_cell_holder_ac-20092-aa-negative_terminal_cell_holder
	contact_region_144-contact_region_287-contact_region_306-src-ac-20091-aa-positive_terminal_cell_holder_ac-20091-aa-positive_terminal_cell_holder
	contact_region_143-contact_region_285-contact_region_305-trg
	contact_region_143-contact_region_285-contact_region_305-src-volume_volume
	contact_region_143-contact_region_285-contact_region_305-src-ac-20092-aa-negative_terminal_cell_holder_ac-20092-aa-negative_terminal_cell_holder
	contact_region_143-contact_region_285-contact_region_305-src-ac-20091-aa-positive_terminal_cell_holder_ac-20091-aa-positive_terminal_cell_holder
	contact_region_142-contact_region_283-contact_region_304-trg
	contact_region_142-contact_region_283-contact_region_304-src-volume_volume
	contact_region_142-contact_region_283-contact_region_304-src-ac-20092-aa-negative_terminal_cell_holder_ac-20092-aa-negative_terminal_cell_holder
	contact_region_142-contact_region_283-contact_region_304-src-ac-20091-aa-positive_terminal_cell_holder_ac-20091-aa-positive_terminal_cell_holder
	contact_region_141-contact_region_281-contact_region_303-trg
	contact_region_141-contact_region_281-contact_region_303-src-volume_volume
	contact_region_141-contact_region_281-contact_region_303-src-ac-20092-aa-negative_terminal_cell_holder_ac-20092-aa-negative_terminal_cell_holder
	contact_region_141-contact_region_281-contact_region_303-src-ac-20091-aa-positive_terminal_cell_holder_ac-20091-aa-positive_terminal_cell_holder
	contact_region_140-contact_region_279-contact_region_302-trg
	contact_region_140-contact_region_279-contact_region_302-src-volume_volume
	contact_region_140-contact_region_279-contact_region_302-src-ac-20092-aa-negative_terminal_cell_holder_ac-20092-aa-negative_terminal_cell_holder
	contact_region_140-contact_region_279-contact_region_302-src-ac-20091-aa-positive_terminal_cell_holder_ac-20091-aa-positive_terminal_cell_holder
	contact_region_14-contact_region_19-contact_region_308-contact_region_65-contact_region_72-contact_region_62-contact_region_63-contact_region_65-trg-ac-20092-aa-negative_terminal_cell_holder_ac-20092-aa-negative_terminal_cell_holder
	contact_region_14-contact_region_19-contact_region_308-contact_region_65-contact_region_72-contact_region_62-contact_region_63-contact_region_65-trg-part5^basic_subpack_geometry_for_cfd-1_part5^basic_subpack_geometry_for_cfd
	contact_region_14-contact_region_19-contact_region_308-contact_region_65-contact_region_72-contact_region_62-contact_region_63-contact_region_65-trg-part5^basic_subpack_geometry_for_cfd_part5^basic_subpack_geometry_for_cfd
	contact_region_14-contact_region_19-contact_region_308-contact_region_65-contact_region_72-contact_region_62-contact_region_63-contact_region_65-src-volume_volume
	contact_region_14-contact_region_19-contact_region_308-contact_region_65-contact_region_72-contact_region_62-contact_region_63-contact_region_65-src-part3^basic_subpack_geometry_for_cfd_part3^basic_subpack_geometry_for_cfd
	contact_region_14-contact_region_19-contact_region_308-contact_region_65-contact_region_72-contact_region_62-contact_region_63-contact_region_65-src-part7^basic_subpack_geometry_for_cfd_part7^basic_subpack_geometry_for_cfd
	contact_region_14-contact_region_19-contact_region_308-contact_region_65-contact_region_72-contact_region_62-contact_region_63-contact_region_65-src-subpack_side_wall_outlet__subpack_side_wall_outlet_
	contact_region_14-contact_region_19-contact_region_308-contact_region_65-contact_region_72-contact_region_62-contact_region_63-contact_region_65-src-subpack_side_wall_inlet___subpack_side_wall_inlet__
	contact_region_139-contact_region_277-contact_region_301-trg
	contact_region_139-contact_region_277-contact_region_301-src-volume_volume
	contact_region_139-contact_region_277-contact_region_301-src-ac-20092-aa-negative_terminal_cell_holder_ac-20092-aa-negative_terminal_cell_holder
	contact_region_139-contact_region_277-contact_region_301-src-ac-20091-aa-positive_terminal_cell_holder_ac-20091-aa-positive_terminal_cell_holder
	contact_region_138-contact_region_275-contact_region_300-trg
	contact_region_138-contact_region_275-contact_region_300-src-volume_volume
	contact_region_138-contact_region_275-contact_region_300-src-ac-20092-aa-negative_terminal_cell_holder_ac-20092-aa-negative_terminal_cell_holder
	contact_region_138-contact_region_275-contact_region_300-src-ac-20091-aa-positive_terminal_cell_holder_ac-20091-aa-positive_terminal_cell_holder
	contact_region_137-contact_region_273-contact_region_299-trg
	contact_region_137-contact_region_273-contact_region_299-src-volume_volume
	contact_region_137-contact_region_273-contact_region_299-src-ac-20092-aa-negative_terminal_cell_holder_ac-20092-aa-negative_terminal_cell_holder
	contact_region_137-contact_region_273-contact_region_299-src-ac-20091-aa-positive_terminal_cell_holder_ac-20091-aa-positive_terminal_cell_holder
	contact_region_136-contact_region_271-contact_region_298-trg
	contact_region_136-contact_region_271-contact_region_298-src-volume_volume
	contact_region_136-contact_region_271-contact_region_298-src-ac-20092-aa-negative_terminal_cell_holder_ac-20092-aa-negative_terminal_cell_holder
	contact_region_136-contact_region_271-contact_region_298-src-ac-20091-aa-positive_terminal_cell_holder_ac-20091-aa-positive_terminal_cell_holder
	contact_region_135-contact_region_269-contact_region_297-trg
	contact_region_135-contact_region_269-contact_region_297-src-volume_volume
	contact_region_135-contact_region_269-contact_region_297-src-ac-20092-aa-negative_terminal_cell_holder_ac-20092-aa-negative_terminal_cell_holder
	contact_region_135-contact_region_269-contact_region_297-src-ac-20091-aa-positive_terminal_cell_holder_ac-20091-aa-positive_terminal_cell_holder
	contact_region_134-contact_region_267-contact_region_296-trg
	contact_region_134-contact_region_267-contact_region_296-src-volume_volume
	contact_region_134-contact_region_267-contact_region_296-src-ac-20092-aa-negative_terminal_cell_holder_ac-20092-aa-negative_terminal_cell_holder
	contact_region_134-contact_region_267-contact_region_296-src-ac-20091-aa-positive_terminal_cell_holder_ac-20091-aa-positive_terminal_cell_holder
	contact_region_133-contact_region_265-contact_region_295-trg
	contact_region_133-contact_region_265-contact_region_295-src-volume_volume
	contact_region_133-contact_region_265-contact_region_295-src-ac-20092-aa-negative_terminal_cell_holder_ac-20092-aa-negative_terminal_cell_holder
	contact_region_133-contact_region_265-contact_region_295-src-ac-20091-aa-positive_terminal_cell_holder_ac-20091-aa-positive_terminal_cell_holder
	contact_region_132-contact_region_263-contact_region_294-trg
	contact_region_132-contact_region_263-contact_region_294-src-volume_volume
	contact_region_132-contact_region_263-contact_region_294-src-ac-20092-aa-negative_terminal_cell_holder_ac-20092-aa-negative_terminal_cell_holder
	contact_region_132-contact_region_263-contact_region_294-src-ac-20091-aa-positive_terminal_cell_holder_ac-20091-aa-positive_terminal_cell_holder
	contact_region_131-contact_region_261-contact_region_293-trg
	contact_region_131-contact_region_261-contact_region_293-src-volume_volume
	contact_region_131-contact_region_261-contact_region_293-src-ac-20092-aa-negative_terminal_cell_holder_ac-20092-aa-negative_terminal_cell_holder
	contact_region_131-contact_region_261-contact_region_293-src-ac-20091-aa-positive_terminal_cell_holder_ac-20091-aa-positive_terminal_cell_holder
	contact_region_130-contact_region_259-contact_region_292-trg
	contact_region_130-contact_region_259-contact_region_292-src-volume_volume
	contact_region_130-contact_region_259-contact_region_292-src-ac-20092-aa-negative_terminal_cell_holder_ac-20092-aa-negative_terminal_cell_holder
	contact_region_130-contact_region_259-contact_region_292-src-ac-20091-aa-positive_terminal_cell_holder_ac-20091-aa-positive_terminal_cell_holder
	contact_region_129-contact_region_257-contact_region_291-trg
	contact_region_129-contact_region_257-contact_region_291-src-volume_volume
	contact_region_129-contact_region_257-contact_region_291-src-ac-20092-aa-negative_terminal_cell_holder_ac-20092-aa-negative_terminal_cell_holder
	contact_region_129-contact_region_257-contact_region_291-src-ac-20091-aa-positive_terminal_cell_holder_ac-20091-aa-positive_terminal_cell_holder
	contact_region_128-contact_region_255-contact_region_290-trg
	contact_region_128-contact_region_255-contact_region_290-src-volume_volume
	contact_region_128-contact_region_255-contact_region_290-src-ac-20092-aa-negative_terminal_cell_holder_ac-20092-aa-negative_terminal_cell_holder
	contact_region_128-contact_region_255-contact_region_290-src-ac-20091-aa-positive_terminal_cell_holder_ac-20091-aa-positive_terminal_cell_holder
	contact_region_127-contact_region_253-contact_region_288-trg
	contact_region_127-contact_region_253-contact_region_288-src-volume_volume
	contact_region_127-contact_region_253-contact_region_288-src-ac-20092-aa-negative_terminal_cell_holder_ac-20092-aa-negative_terminal_cell_holder
	contact_region_127-contact_region_253-contact_region_288-src-ac-20091-aa-positive_terminal_cell_holder_ac-20091-aa-positive_terminal_cell_holder
	contact_region_126-contact_region_251-contact_region_286-trg
	contact_region_126-contact_region_251-contact_region_286-src-volume_volume
	contact_region_126-contact_region_251-contact_region_286-src-ac-20092-aa-negative_terminal_cell_holder_ac-20092-aa-negative_terminal_cell_holder
	contact_region_126-contact_region_251-contact_region_286-src-ac-20091-aa-positive_terminal_cell_holder_ac-20091-aa-positive_terminal_cell_holder
	contact_region_125-contact_region_249-contact_region_284-trg
	contact_region_125-contact_region_249-contact_region_284-src-volume_volume
	contact_region_125-contact_region_249-contact_region_284-src-ac-20092-aa-negative_terminal_cell_holder_ac-20092-aa-negative_terminal_cell_holder
	contact_region_125-contact_region_249-contact_region_284-src-ac-20091-aa-positive_terminal_cell_holder_ac-20091-aa-positive_terminal_cell_holder
	contact_region_124-contact_region_247-contact_region_282-trg
	contact_region_124-contact_region_247-contact_region_282-src-volume_volume
	contact_region_124-contact_region_247-contact_region_282-src-ac-20092-aa-negative_terminal_cell_holder_ac-20092-aa-negative_terminal_cell_holder
	contact_region_124-contact_region_247-contact_region_282-src-ac-20091-aa-positive_terminal_cell_holder_ac-20091-aa-positive_terminal_cell_holder
	contact_region_123-contact_region_245-contact_region_280-trg
	contact_region_123-contact_region_245-contact_region_280-src-volume_volume
	contact_region_123-contact_region_245-contact_region_280-src-ac-20092-aa-negative_terminal_cell_holder_ac-20092-aa-negative_terminal_cell_holder
	contact_region_123-contact_region_245-contact_region_280-src-ac-20091-aa-positive_terminal_cell_holder_ac-20091-aa-positive_terminal_cell_holder
	contact_region_122-contact_region_243-contact_region_278-trg
	contact_region_122-contact_region_243-contact_region_278-src-volume_volume
	contact_region_122-contact_region_243-contact_region_278-src-ac-20092-aa-negative_terminal_cell_holder_ac-20092-aa-negative_terminal_cell_holder
	contact_region_122-contact_region_243-contact_region_278-src-ac-20091-aa-positive_terminal_cell_holder_ac-20091-aa-positive_terminal_cell_holder
	contact_region_121-contact_region_241-contact_region_276-trg
	contact_region_121-contact_region_241-contact_region_276-src-volume_volume
	contact_region_121-contact_region_241-contact_region_276-src-ac-20092-aa-negative_terminal_cell_holder_ac-20092-aa-negative_terminal_cell_holder
	contact_region_121-contact_region_241-contact_region_276-src-ac-20091-aa-positive_terminal_cell_holder_ac-20091-aa-positive_terminal_cell_holder
	contact_region_120-contact_region_239-contact_region_274-trg
	contact_region_120-contact_region_239-contact_region_274-src-volume_volume
	contact_region_120-contact_region_239-contact_region_274-src-ac-20092-aa-negative_terminal_cell_holder_ac-20092-aa-negative_terminal_cell_holder
	contact_region_120-contact_region_239-contact_region_274-src-ac-20091-aa-positive_terminal_cell_holder_ac-20091-aa-positive_terminal_cell_holder
	contact_region_119-contact_region_237-contact_region_272-trg
	contact_region_119-contact_region_237-contact_region_272-src-volume_volume
	contact_region_119-contact_region_237-contact_region_272-src-ac-20092-aa-negative_terminal_cell_holder_ac-20092-aa-negative_terminal_cell_holder
	contact_region_119-contact_region_237-contact_region_272-src-ac-20091-aa-positive_terminal_cell_holder_ac-20091-aa-positive_terminal_cell_holder
	contact_region_118-contact_region_235-contact_region_270-trg
	contact_region_118-contact_region_235-contact_region_270-src-volume_volume
	contact_region_118-contact_region_235-contact_region_270-src-ac-20092-aa-negative_terminal_cell_holder_ac-20092-aa-negative_terminal_cell_holder
	contact_region_118-contact_region_235-contact_region_270-src-ac-20091-aa-positive_terminal_cell_holder_ac-20091-aa-positive_terminal_cell_holder
	contact_region_117-contact_region_233-contact_region_268-trg
	contact_region_117-contact_region_233-contact_region_268-src-volume_volume
	contact_region_117-contact_region_233-contact_region_268-src-ac-20092-aa-negative_terminal_cell_holder_ac-20092-aa-negative_terminal_cell_holder
	contact_region_117-contact_region_233-contact_region_268-src-ac-20091-aa-positive_terminal_cell_holder_ac-20091-aa-positive_terminal_cell_holder
	contact_region_116-contact_region_231-contact_region_266-trg
	contact_region_116-contact_region_231-contact_region_266-src-volume_volume
	contact_region_116-contact_region_231-contact_region_266-src-ac-20092-aa-negative_terminal_cell_holder_ac-20092-aa-negative_terminal_cell_holder
	contact_region_116-contact_region_231-contact_region_266-src-ac-20091-aa-positive_terminal_cell_holder_ac-20091-aa-positive_terminal_cell_holder
	contact_region_115-contact_region_229-contact_region_264-trg
	contact_region_115-contact_region_229-contact_region_264-src-volume_volume
	contact_region_115-contact_region_229-contact_region_264-src-ac-20092-aa-negative_terminal_cell_holder_ac-20092-aa-negative_terminal_cell_holder
	contact_region_115-contact_region_229-contact_region_264-src-ac-20091-aa-positive_terminal_cell_holder_ac-20091-aa-positive_terminal_cell_holder
	contact_region_114-contact_region_227-contact_region_262-trg
	contact_region_114-contact_region_227-contact_region_262-src-volume_volume
	contact_region_114-contact_region_227-contact_region_262-src-ac-20092-aa-negative_terminal_cell_holder_ac-20092-aa-negative_terminal_cell_holder
	contact_region_114-contact_region_227-contact_region_262-src-ac-20091-aa-positive_terminal_cell_holder_ac-20091-aa-positive_terminal_cell_holder
	contact_region_113-contact_region_225-contact_region_260-trg
	contact_region_113-contact_region_225-contact_region_260-src-volume_volume
	contact_region_113-contact_region_225-contact_region_260-src-ac-20092-aa-negative_terminal_cell_holder_ac-20092-aa-negative_terminal_cell_holder
	contact_region_113-contact_region_225-contact_region_260-src-ac-20091-aa-positive_terminal_cell_holder_ac-20091-aa-positive_terminal_cell_holder
	contact_region_112-contact_region_223-contact_region_258-trg
	contact_region_112-contact_region_223-contact_region_258-src-volume_volume
	contact_region_112-contact_region_223-contact_region_258-src-ac-20092-aa-negative_terminal_cell_holder_ac-20092-aa-negative_terminal_cell_holder
	contact_region_112-contact_region_223-contact_region_258-src-ac-20091-aa-positive_terminal_cell_holder_ac-20091-aa-positive_terminal_cell_holder
	contact_region_111-contact_region_221-contact_region_256-trg
	contact_region_111-contact_region_221-contact_region_256-src-volume_volume
	contact_region_111-contact_region_221-contact_region_256-src-ac-20092-aa-negative_terminal_cell_holder_ac-20092-aa-negative_terminal_cell_holder
	contact_region_111-contact_region_221-contact_region_256-src-ac-20091-aa-positive_terminal_cell_holder_ac-20091-aa-positive_terminal_cell_holder
	contact_region_110-contact_region_219-contact_region_254-trg
	contact_region_110-contact_region_219-contact_region_254-src-volume_volume
	contact_region_110-contact_region_219-contact_region_254-src-ac-20092-aa-negative_terminal_cell_holder_ac-20092-aa-negative_terminal_cell_holder
	contact_region_110-contact_region_219-contact_region_254-src-ac-20091-aa-positive_terminal_cell_holder_ac-20091-aa-positive_terminal_cell_holder
	contact_region_11-contact_region_12-contact_region_13-contact_region_172-contact_region_172-contact_region_5-contact_region_8-trg-volume_volume
	contact_region_11-contact_region_12-contact_region_13-contact_region_172-contact_region_172-contact_region_5-contact_region_8-trg-front_fan_duct_front_fan_duct
	contact_region_11-contact_region_12-contact_region_13-contact_region_172-contact_region_172-contact_region_5-contact_region_8-trg-ac-20091-aa-positive_terminal_cell_holder_ac-20091-aa-positive_terminal_cell_holder
	contact_region_11-contact_region_12-contact_region_13-contact_region_172-contact_region_172-contact_region_5-contact_region_8-trg-part3^basic_subpack_geometry_for_cfd_part3^basic_subpack_geometry_for_cfd
	contact_region_11-contact_region_12-contact_region_13-contact_region_172-contact_region_172-contact_region_5-contact_region_8-trg-part7^basic_subpack_geometry_for_cfd_part7^basic_subpack_geometry_for_cfd
	contact_region_11-contact_region_12-contact_region_13-contact_region_172-contact_region_172-contact_region_5-contact_region_8-src
	contact_region_109-contact_region_217-contact_region_252-trg
	contact_region_109-contact_region_217-contact_region_252-src-volume_volume
	contact_region_109-contact_region_217-contact_region_252-src-ac-20092-aa-negative_terminal_cell_holder_ac-20092-aa-negative_terminal_cell_holder
	contact_region_109-contact_region_217-contact_region_252-src-ac-20091-aa-positive_terminal_cell_holder_ac-20091-aa-positive_terminal_cell_holder
	contact_region_108-contact_region_215-contact_region_250-trg
	contact_region_108-contact_region_215-contact_region_250-src-volume_volume
	contact_region_108-contact_region_215-contact_region_250-src-ac-20092-aa-negative_terminal_cell_holder_ac-20092-aa-negative_terminal_cell_holder
	contact_region_108-contact_region_215-contact_region_250-src-ac-20091-aa-positive_terminal_cell_holder_ac-20091-aa-positive_terminal_cell_holder
	contact_region_107-contact_region_213-contact_region_248-trg
	contact_region_107-contact_region_213-contact_region_248-src-volume_volume
	contact_region_107-contact_region_213-contact_region_248-src-ac-20092-aa-negative_terminal_cell_holder_ac-20092-aa-negative_terminal_cell_holder
	contact_region_107-contact_region_213-contact_region_248-src-ac-20091-aa-positive_terminal_cell_holder_ac-20091-aa-positive_terminal_cell_holder
	contact_region_106-contact_region_211-contact_region_246-trg
	contact_region_106-contact_region_211-contact_region_246-src-volume_volume
	contact_region_106-contact_region_211-contact_region_246-src-ac-20092-aa-negative_terminal_cell_holder_ac-20092-aa-negative_terminal_cell_holder
	contact_region_106-contact_region_211-contact_region_246-src-ac-20091-aa-positive_terminal_cell_holder_ac-20091-aa-positive_terminal_cell_holder
	contact_region_105-contact_region_209-contact_region_244-trg
	contact_region_105-contact_region_209-contact_region_244-src-volume_volume
	contact_region_105-contact_region_209-contact_region_244-src-ac-20092-aa-negative_terminal_cell_holder_ac-20092-aa-negative_terminal_cell_holder
	contact_region_105-contact_region_209-contact_region_244-src-ac-20091-aa-positive_terminal_cell_holder_ac-20091-aa-positive_terminal_cell_holder
	contact_region_104-contact_region_207-contact_region_242-trg
	contact_region_104-contact_region_207-contact_region_242-src-volume_volume
	contact_region_104-contact_region_207-contact_region_242-src-ac-20092-aa-negative_terminal_cell_holder_ac-20092-aa-negative_terminal_cell_holder
	contact_region_104-contact_region_207-contact_region_242-src-ac-20091-aa-positive_terminal_cell_holder_ac-20091-aa-positive_terminal_cell_holder
	contact_region_103-contact_region_205-contact_region_240-trg
	contact_region_103-contact_region_205-contact_region_240-src-volume_volume
	contact_region_103-contact_region_205-contact_region_240-src-ac-20092-aa-negative_terminal_cell_holder_ac-20092-aa-negative_terminal_cell_holder
	contact_region_103-contact_region_205-contact_region_240-src-ac-20091-aa-positive_terminal_cell_holder_ac-20091-aa-positive_terminal_cell_holder
	contact_region_102-contact_region_203-contact_region_238-trg
	contact_region_102-contact_region_203-contact_region_238-src-volume_volume
	contact_region_102-contact_region_203-contact_region_238-src-ac-20092-aa-negative_terminal_cell_holder_ac-20092-aa-negative_terminal_cell_holder
	contact_region_102-contact_region_203-contact_region_238-src-ac-20091-aa-positive_terminal_cell_holder_ac-20091-aa-positive_terminal_cell_holder
	contact_region_101-contact_region_201-contact_region_236-trg
	contact_region_101-contact_region_201-contact_region_236-src-volume_volume
	contact_region_101-contact_region_201-contact_region_236-src-ac-20092-aa-negative_terminal_cell_holder_ac-20092-aa-negative_terminal_cell_holder
	contact_region_101-contact_region_201-contact_region_236-src-ac-20091-aa-positive_terminal_cell_holder_ac-20091-aa-positive_terminal_cell_holder
	contact_region_100-contact_region_199-contact_region_234-trg
	contact_region_100-contact_region_199-contact_region_234-src-volume_volume
	contact_region_100-contact_region_199-contact_region_234-src-ac-20092-aa-negative_terminal_cell_holder_ac-20092-aa-negative_terminal_cell_holder
	contact_region_100-contact_region_199-contact_region_234-src-ac-20091-aa-positive_terminal_cell_holder_ac-20091-aa-positive_terminal_cell_holder
	wall-front_fan_duct_front_fan_duct
	wall-ac-20092-aa-negative_terminal_cell_holder_ac-20092-aa-negative_terminal_cell_holder
	wall-cell_placeholder_cell_placeholder
	wall-ac-20091-aa-positive_terminal_cell_holder_ac-20091-aa-positive_terminal_cell_holder
	wall-part3^basic_subpack_geometry_for_cfd_part3^basic_subpack_geometry_for_cfd
	wall-part5^basic_subpack_geometry_for_cfd-1_part5^basic_subpack_geometry_for_cfd
	wall-part5^basic_subpack_geometry_for_cfd_part5^basic_subpack_geometry_for_cfd
	wall-part6^basic_subpack_geometry_for_cfd-0_part6^basic_subpack_geometry_for_cfd
	wall-part6^basic_subpack_geometry_for_cfd_part6^basic_subpack_geometry_for_cfd
	wall-part7^basic_subpack_geometry_for_cfd_part7^basic_subpack_geometry_for_cfd
	wall-subpack_side_wall_outlet__subpack_side_wall_outlet_
	wall-subpack_side_wall_inlet___subpack_side_wall_inlet__
	wall-373
	wall-374
	wall-375
	wall-376
	wall-380
	wall-381
	wall-382
	wall-383
	wall-387
	wall-388
	wall-389
	wall-390
	wall-394
	wall-395
	wall-396
	wall-397
	wall-401
	wall-402
	wall-403
	wall-404
	wall-408
	wall-409
	wall-410
	wall-411
	wall-415
	wall-416
	wall-417
	wall-418
	wall-422
	wall-423
	wall-424
	wall-425
	wall-429
	wall-430
	wall-431
	wall-432
	wall-436
	wall-437
	wall-438
	wall-439
	wall-445
	wall-446
	wall-447
	wall-448
	wall-449
	wall-450
	wall-454
	wall-455
	wall-456
	wall-457
	wall-461
	wall-462
	wall-463
	wall-464
	wall-468
	wall-469
	wall-470
	wall-471
	wall-475
	wall-476
	wall-477
	wall-478
	wall-482
	wall-483
	wall-484
	wall-485
	wall-489
	wall-490
	wall-491
	wall-492
	wall-496
	wall-497
	wall-498
	wall-499
	wall-503
	wall-504
	wall-505
	wall-506
	wall-510
	wall-511
	wall-512
	wall-513
	wall-517
	wall-518
	wall-519
	wall-520
	wall-524
	wall-525
	wall-526
	wall-527
	wall-531
	wall-532
	wall-533
	wall-534
	wall-538
	wall-539
	wall-540
	wall-541
	wall-545
	wall-546
	wall-547
	wall-548
	wall-552
	wall-553
	wall-554
	wall-555
	wall-559
	wall-560
	wall-561
	wall-562
	wall-566
	wall-567
	wall-568
	wall-569
	wall-573
	wall-574
	wall-575
	wall-576
	wall-580
	wall-581
	wall-582
	wall-583
	wall-587
	wall-588
	wall-589
	wall-590
	wall-594
	wall-595
	wall-596
	wall-597
	wall-601
	wall-602
	wall-603
	wall-604
	wall-608
	wall-609
	wall-610
	wall-611
	wall-615
	wall-616
	wall-617
	wall-618
	wall-622
	wall-623
	wall-624
	wall-625
	wall-629
	wall-630
	wall-631
	wall-632
	wall-636
	wall-637
	wall-638
	wall-639
	wall-643
	wall-644
	wall-645
	wall-646
	wall-650
	wall-651
	wall-652
	wall-653
	wall-657
	wall-658
	wall-659
	wall-660
	wall-676
	wall-677
	wall-678
	wall-679
	wall-680
	wall-681
	wall-682
	wall-683
	wall-687
	wall-688
	wall-689
	wall-690
	wall-694
	wall-695
	wall-696
	wall-697
	wall-701
	wall-702
	wall-703
	wall-704
	wall-708
	wall-709
	wall-710
	wall-711
	wall-715
	wall-716
	wall-717
	wall-718
	wall-722
	wall-723
	wall-724
	wall-725
	wall-729
	wall-730
	wall-731
	wall-732
	wall-736
	wall-737
	wall-738
	wall-739
	wall-743
	wall-744
	wall-745
	wall-746
	wall-750
	wall-751
	wall-752
	wall-753
	wall-757
	wall-758
	wall-759
	wall-760
	wall-764
	wall-765
	wall-766
	wall-767
	wall-771
	wall-772
	wall-773
	wall-774
	wall-779
	wall-780
	wall-781
	wall-782
	wall-783
	wall-787
	wall-788
	wall-789
	wall-790
	wall-794
	wall-795
	wall-796
	wall-797
	wall-801
	wall-802
	wall-803
	wall-804
	wall-808
	wall-809
	wall-810
	wall-811
	wall-813
	wall-814
	wall-818
	wall-819
	wall-820
	wall-821
	wall-823
	wall-824
	wall-828
	wall-829
	wall-830
	wall-831
	wall-835
	wall-836
	wall-837
	wall-838
	wall-842
	wall-843
	wall-844
	wall-845
	wall-847
	wall-848
	wall-852
	wall-853
	wall-854
	wall-855
	wall-857
	wall-858
	wall-862
	wall-863
	wall-864
	wall-865
	wall-875
	wall-876
	wall-877
	wall-878
	wall-879
	wall-880
	wall-884
	wall-885
	wall-886
	wall-887
	wall-891
	wall-892
	wall-893
	wall-894
	wall-898
	wall-899
	wall-900
	wall-901
	wall-905
	wall-906
	wall-907
	wall-908
	wall-912
	wall-913
	wall-914
	wall-915
	wall-919
	wall-920
	wall-921
	wall-922
	wall-926
	wall-927
	wall-928
	wall-929
	wall-933
	wall-934
	wall-935
	wall-936
	wall-940
	wall-941
	wall-942
	wall-943
	wall-945
	wall-946
	wall-948
	wall-949
	wall-951
	wall-952
	wall-954
	wall-955
 Setting zone id of volume_volume to 39.
 Setting zone id of wall-volume_volume to 13.
 Setting zone id of interior-volume_volume to 26.
Done.
No zone with name subpack_side_wall_inlet___subpack_side_wall_inlet__ (type fluid) (mixture), skipped.
No zone with name subpack_side_wall_outlet__subpack_side_wall_outlet_ (type fluid) (mixture), skipped.
No zone with name part7^basic_subpack_geometry_for_cfd_part7^basic_subpack_geometry_for_cfd (type fluid) (mixture), skipped.
No zone with name part6^basic_subpack_geometry_for_cfd_part6^basic_subpack_geometry_for_cfd (type fluid) (mixture), skipped.
No zone with name part6^basic_subpack_geometry_for_cfd-0_part6^basic_subpack_geometry_for_cfd (type fluid) (mixture), skipped.
No zone with name part5^basic_subpack_geometry_for_cfd_part5^basic_subpack_geometry_for_cfd (type fluid) (mixture), skipped.
No zone with name part5^basic_subpack_geometry_for_cfd-1_part5^basic_subpack_geometry_for_cfd (type fluid) (mixture), skipped.
No zone with name part3^basic_subpack_geometry_for_cfd_part3^basic_subpack_geometry_for_cfd (type fluid) (mixture), skipped.
No zone with name ac-20091-aa-positive_terminal_cell_holder_ac-20091-aa-positive_terminal_cell_holder (type fluid) (mixture), skipped.
No zone with name cell_placeholder_cell_placeholder (type fluid) (mixture), skipped.
No zone with name ac-20092-aa-negative_terminal_cell_holder_ac-20092-aa-negative_terminal_cell_holder (type fluid) (mixture), skipped.
No zone with name front_fan_duct_front_fan_duct (type fluid) (mixture), skipped.
Setting volume_volume (mixture) ... Done.
No zone with name wall-955 (type wall) (mixture), skipped.
No zone with name wall-954 (type wall) (mixture), skipped.
No zone with name interior-953 (type interior) (mixture), skipped.
No zone with name wall-952 (type wall) (mixture), skipped.
No zone with name wall-951 (type wall) (mixture), skipped.
No zone with name interior-950 (type interior) (mixture), skipped.
No zone with name wall-949 (type wall) (mixture), skipped.
No zone with name wall-948 (type wall) (mixture), skipped.
No zone with name interior-947 (type interior) (mixture), skipped.
No zone with name wall-946 (type wall) (mixture), skipped.
No zone with name wall-945 (type wall) (mixture), skipped.
No zone with name interior-944 (type interior) (mixture), skipped.
No zone with name wall-943 (type wall) (mixture), skipped.
No zone with name wall-942 (type wall) (mixture), skipped.
No zone with name wall-941 (type wall) (mixture), skipped.
No zone with name wall-940 (type wall) (mixture), skipped.
No zone with name interior-939 (type interior) (mixture), skipped.
No zone with name interior-938 (type interior) (mixture), skipped.
No zone with name interior-937 (type interior) (mixture), skipped.
No zone with name wall-936 (type wall) (mixture), skipped.
No zone with name wall-935 (type wall) (mixture), skipped.
No zone with name wall-934 (type wall) (mixture), skipped.
No zone with name wall-933 (type wall) (mixture), skipped.
No zone with name interior-932 (type interior) (mixture), skipped.
No zone with name interior-931 (type interior) (mixture), skipped.
No zone with name interior-930 (type interior) (mixture), skipped.
No zone with name wall-929 (type wall) (mixture), skipped.
No zone with name wall-928 (type wall) (mixture), skipped.
No zone with name wall-927 (type wall) (mixture), skipped.
No zone with name wall-926 (type wall) (mixture), skipped.
No zone with name interior-925 (type interior) (mixture), skipped.
No zone with name interior-924 (type interior) (mixture), skipped.
No zone with name interior-923 (type interior) (mixture), skipped.
No zone with name wall-922 (type wall) (mixture), skipped.
No zone with name wall-921 (type wall) (mixture), skipped.
No zone with name wall-920 (type wall) (mixture), skipped.
No zone with name wall-919 (type wall) (mixture), skipped.
No zone with name interior-918 (type interior) (mixture), skipped.
No zone with name interior-917 (type interior) (mixture), skipped.
No zone with name interior-916 (type interior) (mixture), skipped.
No zone with name wall-915 (type wall) (mixture), skipped.
No zone with name wall-914 (type wall) (mixture), skipped.
No zone with name wall-913 (type wall) (mixture), skipped.
No zone with name wall-912 (type wall) (mixture), skipped.
No zone with name interior-911 (type interior) (mixture), skipped.
No zone with name interior-910 (type interior) (mixture), skipped.
No zone with name interior-909 (type interior) (mixture), skipped.
No zone with name wall-908 (type wall) (mixture), skipped.
No zone with name wall-907 (type wall) (mixture), skipped.
No zone with name wall-906 (type wall) (mixture), skipped.
No zone with name wall-905 (type wall) (mixture), skipped.
No zone with name interior-904 (type interior) (mixture), skipped.
No zone with name interior-903 (type interior) (mixture), skipped.
No zone with name interior-902 (type interior) (mixture), skipped.
No zone with name wall-901 (type wall) (mixture), skipped.
No zone with name wall-900 (type wall) (mixture), skipped.
No zone with name wall-899 (type wall) (mixture), skipped.
No zone with name wall-898 (type wall) (mixture), skipped.
No zone with name interior-897 (type interior) (mixture), skipped.
No zone with name interior-896 (type interior) (mixture), skipped.
No zone with name interior-895 (type interior) (mixture), skipped.
No zone with name wall-894 (type wall) (mixture), skipped.
No zone with name wall-893 (type wall) (mixture), skipped.
No zone with name wall-892 (type wall) (mixture), skipped.
No zone with name wall-891 (type wall) (mixture), skipped.
No zone with name interior-890 (type interior) (mixture), skipped.
No zone with name interior-889 (type interior) (mixture), skipped.
No zone with name interior-888 (type interior) (mixture), skipped.
No zone with name wall-887 (type wall) (mixture), skipped.
No zone with name wall-886 (type wall) (mixture), skipped.
No zone with name wall-885 (type wall) (mixture), skipped.
No zone with name wall-884 (type wall) (mixture), skipped.
No zone with name interior-883 (type interior) (mixture), skipped.
No zone with name interior-882 (type interior) (mixture), skipped.
No zone with name interior-881 (type interior) (mixture), skipped.
No zone with name wall-880 (type wall) (mixture), skipped.
No zone with name wall-879 (type wall) (mixture), skipped.
No zone with name wall-878 (type wall) (mixture), skipped.
No zone with name wall-877 (type wall) (mixture), skipped.
No zone with name wall-876 (type wall) (mixture), skipped.
No zone with name wall-875 (type wall) (mixture), skipped.
No zone with name interior-874 (type interior) (mixture), skipped.
No zone with name interior-873 (type interior) (mixture), skipped.
No zone with name interior-872 (type interior) (mixture), skipped.
No zone with name interior-871 (type interior) (mixture), skipped.
No zone with name interior-870 (type interior) (mixture), skipped.
No zone with name interior-869 (type interior) (mixture), skipped.
No zone with name interior-868 (type interior) (mixture), skipped.
No zone with name interior-867 (type interior) (mixture), skipped.
No zone with name interior-866 (type interior) (mixture), skipped.
No zone with name wall-865 (type wall) (mixture), skipped.
No zone with name wall-864 (type wall) (mixture), skipped.
No zone with name wall-863 (type wall) (mixture), skipped.
No zone with name wall-862 (type wall) (mixture), skipped.
No zone with name interior-861 (type interior) (mixture), skipped.
No zone with name interior-860 (type interior) (mixture), skipped.
No zone with name interior-859 (type interior) (mixture), skipped.
No zone with name wall-858 (type wall) (mixture), skipped.
No zone with name wall-857 (type wall) (mixture), skipped.
No zone with name interior-856 (type interior) (mixture), skipped.
No zone with name wall-855 (type wall) (mixture), skipped.
No zone with name wall-854 (type wall) (mixture), skipped.
No zone with name wall-853 (type wall) (mixture), skipped.
No zone with name wall-852 (type wall) (mixture), skipped.
No zone with name interior-851 (type interior) (mixture), skipped.
No zone with name interior-850 (type interior) (mixture), skipped.
No zone with name interior-849 (type interior) (mixture), skipped.
No zone with name wall-848 (type wall) (mixture), skipped.
No zone with name wall-847 (type wall) (mixture), skipped.
No zone with name interior-846 (type interior) (mixture), skipped.
No zone with name wall-845 (type wall) (mixture), skipped.
No zone with name wall-844 (type wall) (mixture), skipped.
No zone with name wall-843 (type wall) (mixture), skipped.
No zone with name wall-842 (type wall) (mixture), skipped.
No zone with name interior-841 (type interior) (mixture), skipped.
No zone with name interior-840 (type interior) (mixture), skipped.
No zone with name interior-839 (type interior) (mixture), skipped.
No zone with name wall-838 (type wall) (mixture), skipped.
No zone with name wall-837 (type wall) (mixture), skipped.
No zone with name wall-836 (type wall) (mixture), skipped.
No zone with name wall-835 (type wall) (mixture), skipped.
No zone with name interior-834 (type interior) (mixture), skipped.
No zone with name interior-833 (type interior) (mixture), skipped.
No zone with name interior-832 (type interior) (mixture), skipped.
No zone with name wall-831 (type wall) (mixture), skipped.
No zone with name wall-830 (type wall) (mixture), skipped.
No zone with name wall-829 (type wall) (mixture), skipped.
No zone with name wall-828 (type wall) (mixture), skipped.
No zone with name interior-827 (type interior) (mixture), skipped.
No zone with name interior-826 (type interior) (mixture), skipped.
No zone with name interior-825 (type interior) (mixture), skipped.
No zone with name wall-824 (type wall) (mixture), skipped.
No zone with name wall-823 (type wall) (mixture), skipped.
No zone with name interior-822 (type interior) (mixture), skipped.
No zone with name wall-821 (type wall) (mixture), skipped.
No zone with name wall-820 (type wall) (mixture), skipped.
No zone with name wall-819 (type wall) (mixture), skipped.
No zone with name wall-818 (type wall) (mixture), skipped.
No zone with name interior-817 (type interior) (mixture), skipped.
No zone with name interior-816 (type interior) (mixture), skipped.
No zone with name interior-815 (type interior) (mixture), skipped.
No zone with name wall-814 (type wall) (mixture), skipped.
No zone with name wall-813 (type wall) (mixture), skipped.
No zone with name interior-812 (type interior) (mixture), skipped.
No zone with name wall-811 (type wall) (mixture), skipped.
No zone with name wall-810 (type wall) (mixture), skipped.
No zone with name wall-809 (type wall) (mixture), skipped.
No zone with name wall-808 (type wall) (mixture), skipped.
No zone with name interior-807 (type interior) (mixture), skipped.
No zone with name interior-806 (type interior) (mixture), skipped.
No zone with name interior-805 (type interior) (mixture), skipped.
No zone with name wall-804 (type wall) (mixture), skipped.
No zone with name wall-803 (type wall) (mixture), skipped.
No zone with name wall-802 (type wall) (mixture), skipped.
No zone with name wall-801 (type wall) (mixture), skipped.
No zone with name interior-800 (type interior) (mixture), skipped.
No zone with name interior-799 (type interior) (mixture), skipped.
No zone with name interior-798 (type interior) (mixture), skipped.
No zone with name wall-797 (type wall) (mixture), skipped.
No zone with name wall-796 (type wall) (mixture), skipped.
No zone with name wall-795 (type wall) (mixture), skipped.
No zone with name wall-794 (type wall) (mixture), skipped.
No zone with name interior-793 (type interior) (mixture), skipped.
No zone with name interior-792 (type interior) (mixture), skipped.
No zone with name interior-791 (type interior) (mixture), skipped.
No zone with name wall-790 (type wall) (mixture), skipped.
No zone with name wall-789 (type wall) (mixture), skipped.
No zone with name wall-788 (type wall) (mixture), skipped.
No zone with name wall-787 (type wall) (mixture), skipped.
No zone with name interior-786 (type interior) (mixture), skipped.
No zone with name interior-785 (type interior) (mixture), skipped.
No zone with name interior-784 (type interior) (mixture), skipped.
No zone with name wall-783 (type wall) (mixture), skipped.
No zone with name wall-782 (type wall) (mixture), skipped.
No zone with name wall-781 (type wall) (mixture), skipped.
No zone with name wall-780 (type wall) (mixture), skipped.
No zone with name wall-779 (type wall) (mixture), skipped.
No zone with name interior-778 (type interior) (mixture), skipped.
No zone with name interior-777 (type interior) (mixture), skipped.
No zone with name interior-776 (type interior) (mixture), skipped.
No zone with name interior-775 (type interior) (mixture), skipped.
No zone with name wall-774 (type wall) (mixture), skipped.
No zone with name wall-773 (type wall) (mixture), skipped.
No zone with name wall-772 (type wall) (mixture), skipped.
No zone with name wall-771 (type wall) (mixture), skipped.
No zone with name interior-770 (type interior) (mixture), skipped.
No zone with name interior-769 (type interior) (mixture), skipped.
No zone with name interior-768 (type interior) (mixture), skipped.
No zone with name wall-767 (type wall) (mixture), skipped.
No zone with name wall-766 (type wall) (mixture), skipped.
No zone with name wall-765 (type wall) (mixture), skipped.
No zone with name wall-764 (type wall) (mixture), skipped.
No zone with name interior-763 (type interior) (mixture), skipped.
No zone with name interior-762 (type interior) (mixture), skipped.
No zone with name interior-761 (type interior) (mixture), skipped.
No zone with name wall-760 (type wall) (mixture), skipped.
No zone with name wall-759 (type wall) (mixture), skipped.
No zone with name wall-758 (type wall) (mixture), skipped.
No zone with name wall-757 (type wall) (mixture), skipped.
No zone with name interior-756 (type interior) (mixture), skipped.
No zone with name interior-755 (type interior) (mixture), skipped.
No zone with name interior-754 (type interior) (mixture), skipped.
No zone with name wall-753 (type wall) (mixture), skipped.
No zone with name wall-752 (type wall) (mixture), skipped.
No zone with name wall-751 (type wall) (mixture), skipped.
No zone with name wall-750 (type wall) (mixture), skipped.
No zone with name interior-749 (type interior) (mixture), skipped.
No zone with name interior-748 (type interior) (mixture), skipped.
No zone with name interior-747 (type interior) (mixture), skipped.
No zone with name wall-746 (type wall) (mixture), skipped.
No zone with name wall-745 (type wall) (mixture), skipped.
No zone with name wall-744 (type wall) (mixture), skipped.
No zone with name wall-743 (type wall) (mixture), skipped.
No zone with name interior-742 (type interior) (mixture), skipped.
No zone with name interior-741 (type interior) (mixture), skipped.
No zone with name interior-740 (type interior) (mixture), skipped.
No zone with name wall-739 (type wall) (mixture), skipped.
No zone with name wall-738 (type wall) (mixture), skipped.
No zone with name wall-737 (type wall) (mixture), skipped.
No zone with name wall-736 (type wall) (mixture), skipped.
No zone with name interior-735 (type interior) (mixture), skipped.
No zone with name interior-734 (type interior) (mixture), skipped.
No zone with name interior-733 (type interior) (mixture), skipped.
No zone with name wall-732 (type wall) (mixture), skipped.
No zone with name wall-731 (type wall) (mixture), skipped.
No zone with name wall-730 (type wall) (mixture), skipped.
No zone with name wall-729 (type wall) (mixture), skipped.
No zone with name interior-728 (type interior) (mixture), skipped.
No zone with name interior-727 (type interior) (mixture), skipped.
No zone with name interior-726 (type interior) (mixture), skipped.
No zone with name wall-725 (type wall) (mixture), skipped.
No zone with name wall-724 (type wall) (mixture), skipped.
No zone with name wall-723 (type wall) (mixture), skipped.
No zone with name wall-722 (type wall) (mixture), skipped.
No zone with name interior-721 (type interior) (mixture), skipped.
No zone with name interior-720 (type interior) (mixture), skipped.
No zone with name interior-719 (type interior) (mixture), skipped.
No zone with name wall-718 (type wall) (mixture), skipped.
No zone with name wall-717 (type wall) (mixture), skipped.
No zone with name wall-716 (type wall) (mixture), skipped.
No zone with name wall-715 (type wall) (mixture), skipped.
No zone with name interior-714 (type interior) (mixture), skipped.
No zone with name interior-713 (type interior) (mixture), skipped.
No zone with name interior-712 (type interior) (mixture), skipped.
No zone with name wall-711 (type wall) (mixture), skipped.
No zone with name wall-710 (type wall) (mixture), skipped.
No zone with name wall-709 (type wall) (mixture), skipped.
No zone with name wall-708 (type wall) (mixture), skipped.
No zone with name interior-707 (type interior) (mixture), skipped.
No zone with name interior-706 (type interior) (mixture), skipped.
No zone with name interior-705 (type interior) (mixture), skipped.
No zone with name wall-704 (type wall) (mixture), skipped.
No zone with name wall-703 (type wall) (mixture), skipped.
No zone with name wall-702 (type wall) (mixture), skipped.
No zone with name wall-701 (type wall) (mixture), skipped.
No zone with name interior-700 (type interior) (mixture), skipped.
No zone with name interior-699 (type interior) (mixture), skipped.
No zone with name interior-698 (type interior) (mixture), skipped.
No zone with name wall-697 (type wall) (mixture), skipped.
No zone with name wall-696 (type wall) (mixture), skipped.
No zone with name wall-695 (type wall) (mixture), skipped.
No zone with name wall-694 (type wall) (mixture), skipped.
No zone with name interior-693 (type interior) (mixture), skipped.
No zone with name interior-692 (type interior) (mixture), skipped.
No zone with name interior-691 (type interior) (mixture), skipped.
No zone with name wall-690 (type wall) (mixture), skipped.
No zone with name wall-689 (type wall) (mixture), skipped.
No zone with name wall-688 (type wall) (mixture), skipped.
No zone with name wall-687 (type wall) (mixture), skipped.
No zone with name interior-686 (type interior) (mixture), skipped.
No zone with name interior-685 (type interior) (mixture), skipped.
No zone with name interior-684 (type interior) (mixture), skipped.
No zone with name wall-683 (type wall) (mixture), skipped.
No zone with name wall-682 (type wall) (mixture), skipped.
No zone with name wall-681 (type wall) (mixture), skipped.
No zone with name wall-680 (type wall) (mixture), skipped.
No zone with name wall-679 (type wall) (mixture), skipped.
No zone with name wall-678 (type wall) (mixture), skipped.
No zone with name wall-677 (type wall) (mixture), skipped.
No zone with name wall-676 (type wall) (mixture), skipped.
No zone with name interior-675 (type interior) (mixture), skipped.
No zone with name interior-674 (type interior) (mixture), skipped.
No zone with name interior-673 (type interior) (mixture), skipped.
No zone with name interior-672 (type interior) (mixture), skipped.
No zone with name interior-671 (type interior) (mixture), skipped.
No zone with name interior-670 (type interior) (mixture), skipped.
No zone with name interior-669 (type interior) (mixture), skipped.
No zone with name interior-668 (type interior) (mixture), skipped.
No zone with name interior-667 (type interior) (mixture), skipped.
No zone with name interior-666 (type interior) (mixture), skipped.
No zone with name interior-665 (type interior) (mixture), skipped.
No zone with name interior-664 (type interior) (mixture), skipped.
No zone with name interior-663 (type interior) (mixture), skipped.
No zone with name interior-662 (type interior) (mixture), skipped.
No zone with name interior-661 (type interior) (mixture), skipped.
No zone with name wall-660 (type wall) (mixture), skipped.
No zone with name wall-659 (type wall) (mixture), skipped.
No zone with name wall-658 (type wall) (mixture), skipped.
No zone with name wall-657 (type wall) (mixture), skipped.
No zone with name interior-656 (type interior) (mixture), skipped.
No zone with name interior-655 (type interior) (mixture), skipped.
No zone with name interior-654 (type interior) (mixture), skipped.
No zone with name wall-653 (type wall) (mixture), skipped.
No zone with name wall-652 (type wall) (mixture), skipped.
No zone with name wall-651 (type wall) (mixture), skipped.
No zone with name wall-650 (type wall) (mixture), skipped.
No zone with name interior-649 (type interior) (mixture), skipped.
No zone with name interior-648 (type interior) (mixture), skipped.
No zone with name interior-647 (type interior) (mixture), skipped.
No zone with name wall-646 (type wall) (mixture), skipped.
No zone with name wall-645 (type wall) (mixture), skipped.
No zone with name wall-644 (type wall) (mixture), skipped.
No zone with name wall-643 (type wall) (mixture), skipped.
No zone with name interior-642 (type interior) (mixture), skipped.
No zone with name interior-641 (type interior) (mixture), skipped.
No zone with name interior-640 (type interior) (mixture), skipped.
No zone with name wall-639 (type wall) (mixture), skipped.
No zone with name wall-638 (type wall) (mixture), skipped.
No zone with name wall-637 (type wall) (mixture), skipped.
No zone with name wall-636 (type wall) (mixture), skipped.
No zone with name interior-635 (type interior) (mixture), skipped.
No zone with name interior-634 (type interior) (mixture), skipped.
No zone with name interior-633 (type interior) (mixture), skipped.
No zone with name wall-632 (type wall) (mixture), skipped.
No zone with name wall-631 (type wall) (mixture), skipped.
No zone with name wall-630 (type wall) (mixture), skipped.
No zone with name wall-629 (type wall) (mixture), skipped.
No zone with name interior-628 (type interior) (mixture), skipped.
No zone with name interior-627 (type interior) (mixture), skipped.
No zone with name interior-626 (type interior) (mixture), skipped.
No zone with name wall-625 (type wall) (mixture), skipped.
No zone with name wall-624 (type wall) (mixture), skipped.
No zone with name wall-623 (type wall) (mixture), skipped.
No zone with name wall-622 (type wall) (mixture), skipped.
No zone with name interior-621 (type interior) (mixture), skipped.
No zone with name interior-620 (type interior) (mixture), skipped.
No zone with name interior-619 (type interior) (mixture), skipped.
No zone with name wall-618 (type wall) (mixture), skipped.
No zone with name wall-617 (type wall) (mixture), skipped.
No zone with name wall-616 (type wall) (mixture), skipped.
No zone with name wall-615 (type wall) (mixture), skipped.
No zone with name interior-614 (type interior) (mixture), skipped.
No zone with name interior-613 (type interior) (mixture), skipped.
No zone with name interior-612 (type interior) (mixture), skipped.
No zone with name wall-611 (type wall) (mixture), skipped.
No zone with name wall-610 (type wall) (mixture), skipped.
No zone with name wall-609 (type wall) (mixture), skipped.
No zone with name wall-608 (type wall) (mixture), skipped.
No zone with name interior-607 (type interior) (mixture), skipped.
No zone with name interior-606 (type interior) (mixture), skipped.
No zone with name interior-605 (type interior) (mixture), skipped.
No zone with name wall-604 (type wall) (mixture), skipped.
No zone with name wall-603 (type wall) (mixture), skipped.
No zone with name wall-602 (type wall) (mixture), skipped.
No zone with name wall-601 (type wall) (mixture), skipped.
No zone with name interior-600 (type interior) (mixture), skipped.
No zone with name interior-599 (type interior) (mixture), skipped.
No zone with name interior-598 (type interior) (mixture), skipped.
No zone with name wall-597 (type wall) (mixture), skipped.
No zone with name wall-596 (type wall) (mixture), skipped.
No zone with name wall-595 (type wall) (mixture), skipped.
No zone with name wall-594 (type wall) (mixture), skipped.
No zone with name interior-593 (type interior) (mixture), skipped.
No zone with name interior-592 (type interior) (mixture), skipped.
No zone with name interior-591 (type interior) (mixture), skipped.
No zone with name wall-590 (type wall) (mixture), skipped.
No zone with name wall-589 (type wall) (mixture), skipped.
No zone with name wall-588 (type wall) (mixture), skipped.
No zone with name wall-587 (type wall) (mixture), skipped.
No zone with name interior-586 (type interior) (mixture), skipped.
No zone with name interior-585 (type interior) (mixture), skipped.
No zone with name interior-584 (type interior) (mixture), skipped.
No zone with name wall-583 (type wall) (mixture), skipped.
No zone with name wall-582 (type wall) (mixture), skipped.
No zone with name wall-581 (type wall) (mixture), skipped.
No zone with name wall-580 (type wall) (mixture), skipped.
No zone with name interior-579 (type interior) (mixture), skipped.
No zone with name interior-578 (type interior) (mixture), skipped.
No zone with name interior-577 (type interior) (mixture), skipped.
No zone with name wall-576 (type wall) (mixture), skipped.
No zone with name wall-575 (type wall) (mixture), skipped.
No zone with name wall-574 (type wall) (mixture), skipped.
No zone with name wall-573 (type wall) (mixture), skipped.
No zone with name interior-572 (type interior) (mixture), skipped.
No zone with name interior-571 (type interior) (mixture), skipped.
No zone with name interior-570 (type interior) (mixture), skipped.
No zone with name wall-569 (type wall) (mixture), skipped.
No zone with name wall-568 (type wall) (mixture), skipped.
No zone with name wall-567 (type wall) (mixture), skipped.
No zone with name wall-566 (type wall) (mixture), skipped.
No zone with name interior-565 (type interior) (mixture), skipped.
No zone with name interior-564 (type interior) (mixture), skipped.
No zone with name interior-563 (type interior) (mixture), skipped.
No zone with name wall-562 (type wall) (mixture), skipped.
No zone with name wall-561 (type wall) (mixture), skipped.
No zone with name wall-560 (type wall) (mixture), skipped.
No zone with name wall-559 (type wall) (mixture), skipped.
No zone with name interior-558 (type interior) (mixture), skipped.
No zone with name interior-557 (type interior) (mixture), skipped.
No zone with name interior-556 (type interior) (mixture), skipped.
No zone with name wall-555 (type wall) (mixture), skipped.
No zone with name wall-554 (type wall) (mixture), skipped.
No zone with name wall-553 (type wall) (mixture), skipped.
No zone with name wall-552 (type wall) (mixture), skipped.
No zone with name interior-551 (type interior) (mixture), skipped.
No zone with name interior-550 (type interior) (mixture), skipped.
No zone with name interior-549 (type interior) (mixture), skipped.
No zone with name wall-548 (type wall) (mixture), skipped.
No zone with name wall-547 (type wall) (mixture), skipped.
No zone with name wall-546 (type wall) (mixture), skipped.
No zone with name wall-545 (type wall) (mixture), skipped.
No zone with name interior-544 (type interior) (mixture), skipped.
No zone with name interior-543 (type interior) (mixture), skipped.
No zone with name interior-542 (type interior) (mixture), skipped.
No zone with name wall-541 (type wall) (mixture), skipped.
No zone with name wall-540 (type wall) (mixture), skipped.
No zone with name wall-539 (type wall) (mixture), skipped.
No zone with name wall-538 (type wall) (mixture), skipped.
No zone with name interior-537 (type interior) (mixture), skipped.
No zone with name interior-536 (type interior) (mixture), skipped.
No zone with name interior-535 (type interior) (mixture), skipped.
No zone with name wall-534 (type wall) (mixture), skipped.
No zone with name wall-533 (type wall) (mixture), skipped.
No zone with name wall-532 (type wall) (mixture), skipped.
No zone with name wall-531 (type wall) (mixture), skipped.
No zone with name interior-530 (type interior) (mixture), skipped.
No zone with name interior-529 (type interior) (mixture), skipped.
No zone with name interior-528 (type interior) (mixture), skipped.
No zone with name wall-527 (type wall) (mixture), skipped.
No zone with name wall-526 (type wall) (mixture), skipped.
No zone with name wall-525 (type wall) (mixture), skipped.
No zone with name wall-524 (type wall) (mixture), skipped.
No zone with name interior-523 (type interior) (mixture), skipped.
No zone with name interior-522 (type interior) (mixture), skipped.
No zone with name interior-521 (type interior) (mixture), skipped.
No zone with name wall-520 (type wall) (mixture), skipped.
No zone with name wall-519 (type wall) (mixture), skipped.
No zone with name wall-518 (type wall) (mixture), skipped.
No zone with name wall-517 (type wall) (mixture), skipped.
No zone with name interior-516 (type interior) (mixture), skipped.
No zone with name interior-515 (type interior) (mixture), skipped.
No zone with name interior-514 (type interior) (mixture), skipped.
No zone with name wall-513 (type wall) (mixture), skipped.
No zone with name wall-512 (type wall) (mixture), skipped.
No zone with name wall-511 (type wall) (mixture), skipped.
No zone with name wall-510 (type wall) (mixture), skipped.
[...]
** 	contact_region_14-contact_region_19-contact_region_308-contact_region_65-contact_region_72-contact_region_62-contact_region_63-contact_region_65-src-subpack_side_wall_outlet__subpack_side_wall_outlet_
** 	contact_region_14-contact_region_19-contact_region_308-contact_region_65-contact_region_72-contact_region_62-contact_region_63-contact_region_65-src-part7^basic_subpack_geometry_for_cfd_part7^basic_subpack_geometry_for_cfd
** 	contact_region_14-contact_region_19-contact_region_308-contact_region_65-contact_region_72-contact_region_62-contact_region_63-contact_region_65-src-part3^basic_subpack_geometry_for_cfd_part3^basic_subpack_geometry_for_cfd
** 	contact_region_14-contact_region_19-contact_region_308-contact_region_65-contact_region_72-contact_region_62-contact_region_63-contact_region_65-src-volume_volume
** 	contact_region_14-contact_region_19-contact_region_308-contact_region_65-contact_region_72-contact_region_62-contact_region_63-contact_region_65-trg-part5^basic_subpack_geometry_for_cfd_part5^basic_subpack_geometry_for_cfd
** 	contact_region_14-contact_region_19-contact_region_308-contact_region_65-contact_region_72-contact_region_62-contact_region_63-contact_region_65-trg-part5^basic_subpack_geometry_for_cfd-1_part5^basic_subpack_geometry_for_cfd
** 	contact_region_14-contact_region_19-contact_region_308-contact_region_65-contact_region_72-contact_region_62-contact_region_63-contact_region_65-trg-ac-20092-aa-negative_terminal_cell_holder_ac-20092-aa-negative_terminal_cell_holder
** 	contact_region_140-contact_region_279-contact_region_302-src-ac-20091-aa-positive_terminal_cell_holder_ac-20091-aa-positive_terminal_cell_holder
** 	contact_region_140-contact_region_279-contact_region_302-src-ac-20092-aa-negative_terminal_cell_holder_ac-20092-aa-negative_terminal_cell_holder
** 	contact_region_140-contact_region_279-contact_region_302-src-volume_volume
** 	contact_region_140-contact_region_279-contact_region_302-trg
** 	contact_region_141-contact_region_281-contact_region_303-src-ac-20091-aa-positive_terminal_cell_holder_ac-20091-aa-positive_terminal_cell_holder
** 	contact_region_141-contact_region_281-contact_region_303-src-ac-20092-aa-negative_terminal_cell_holder_ac-20092-aa-negative_terminal_cell_holder
** 	contact_region_141-contact_region_281-contact_region_303-src-volume_volume
** 	contact_region_141-contact_region_281-contact_region_303-trg
** 	contact_region_142-contact_region_283-contact_region_304-src-ac-20091-aa-positive_terminal_cell_holder_ac-20091-aa-positive_terminal_cell_holder
** 	contact_region_142-contact_region_283-contact_region_304-src-ac-20092-aa-negative_terminal_cell_holder_ac-20092-aa-negative_terminal_cell_holder
** 	contact_region_142-contact_region_283-contact_region_304-src-volume_volume
** 	contact_region_142-contact_region_283-contact_region_304-trg
** 	contact_region_143-contact_region_285-contact_region_305-src-ac-20091-aa-positive_terminal_cell_holder_ac-20091-aa-positive_terminal_cell_holder
** 	contact_region_143-contact_region_285-contact_region_305-src-ac-20092-aa-negative_terminal_cell_holder_ac-20092-aa-negative_terminal_cell_holder
** 	contact_region_143-contact_region_285-contact_region_305-src-volume_volume
** 	contact_region_143-contact_region_285-contact_region_305-trg
** 	contact_region_144-contact_region_287-contact_region_306-src-ac-20091-aa-positive_terminal_cell_holder_ac-20091-aa-positive_terminal_cell_holder
** 	contact_region_144-contact_region_287-contact_region_306-src-ac-20092-aa-negative_terminal_cell_holder_ac-20092-aa-negative_terminal_cell_holder
** 	contact_region_144-contact_region_287-contact_region_306-src-volume_volume
** 	contact_region_144-contact_region_287-contact_region_306-trg
** 	contact_region_145-contact_region_289-contact_region_307-src-ac-20091-aa-positive_terminal_cell_holder_ac-20091-aa-positive_terminal_cell_holder
** 	contact_region_145-contact_region_289-contact_region_307-src-ac-20092-aa-negative_terminal_cell_holder_ac-20092-aa-negative_terminal_cell_holder
** 	contact_region_145-contact_region_289-contact_region_307-src-volume_volume
** 	contact_region_145-contact_region_289-contact_region_307-trg
** 	contact_region_147-contact_region_182-contact_region_74-src
** 	contact_region_147-contact_region_182-contact_region_74-trg-ac-20091-aa-positive_terminal_cell_holder_ac-20091-aa-positive_terminal_cell_holder
** 	contact_region_147-contact_region_182-contact_region_74-trg-ac-20092-aa-negative_terminal_cell_holder_ac-20092-aa-negative_terminal_cell_holder
** 	contact_region_147-contact_region_182-contact_region_74-trg-volume_volume
** 	contact_region_149-contact_region_184-contact_region_75-src
** 	contact_region_149-contact_region_184-contact_region_75-trg-ac-20091-aa-positive_terminal_cell_holder_ac-20091-aa-positive_terminal_cell_holder
** 	contact_region_149-contact_region_184-contact_region_75-trg-ac-20092-aa-negative_terminal_cell_holder_ac-20092-aa-negative_terminal_cell_holder
** 	contact_region_149-contact_region_184-contact_region_75-trg-volume_volume
** 	contact_region_151-contact_region_186-contact_region_76-src
** 	contact_region_151-contact_region_186-contact_region_76-trg-ac-20091-aa-positive_terminal_cell_holder_ac-20091-aa-positive_terminal_cell_holder
** 	contact_region_151-contact_region_186-contact_region_76-trg-ac-20092-aa-negative_terminal_cell_holder_ac-20092-aa-negative_terminal_cell_holder
** 	contact_region_151-contact_region_186-contact_region_76-trg-volume_volume
** 	contact_region_153-contact_region_188-contact_region_77-src
** 	contact_region_153-contact_region_188-contact_region_77-trg-ac-20091-aa-positive_terminal_cell_holder_ac-20091-aa-positive_terminal_cell_holder
** 	contact_region_153-contact_region_188-contact_region_77-trg-ac-20092-aa-negative_terminal_cell_holder_ac-20092-aa-negative_terminal_cell_holder
** 	contact_region_153-contact_region_188-contact_region_77-trg-volume_volume
** 	contact_region_155-contact_region_190-contact_region_78-src
** 	contact_region_155-contact_region_190-contact_region_78-trg-ac-20091-aa-positive_terminal_cell_holder_ac-20091-aa-positive_terminal_cell_holder
** 	contact_region_155-contact_region_190-contact_region_78-trg-ac-20092-aa-negative_terminal_cell_holder_ac-20092-aa-negative_terminal_cell_holder
** 	contact_region_155-contact_region_190-contact_region_78-trg-volume_volume
** 	contact_region_157-contact_region_192-contact_region_79-src
** 	contact_region_157-contact_region_192-contact_region_79-trg-ac-20091-aa-positive_terminal_cell_holder_ac-20091-aa-positive_terminal_cell_holder
** 	contact_region_157-contact_region_192-contact_region_79-trg-ac-20092-aa-negative_terminal_cell_holder_ac-20092-aa-negative_terminal_cell_holder
** 	contact_region_157-contact_region_192-contact_region_79-trg-volume_volume
** 	contact_region_159-contact_region_194-contact_region_80-src
** 	contact_region_159-contact_region_194-contact_region_80-trg-ac-20091-aa-positive_terminal_cell_holder_ac-20091-aa-positive_terminal_cell_holder
** 	contact_region_159-contact_region_194-contact_region_80-trg-ac-20092-aa-negative_terminal_cell_holder_ac-20092-aa-negative_terminal_cell_holder
** 	contact_region_159-contact_region_194-contact_region_80-trg-volume_volume
** 	contact_region_16-contact_region_17-contact_region_174-contact_region_18-src
** 	contact_region_16-contact_region_17-contact_region_174-contact_region_18-trg-part7^basic_subpack_geometry_for_cfd_part7^basic_subpack_geometry_for_cfd
** 	contact_region_16-contact_region_17-contact_region_174-contact_region_18-trg-part3^basic_subpack_geometry_for_cfd_part3^basic_subpack_geometry_for_cfd
** 	contact_region_16-contact_region_17-contact_region_174-contact_region_18-trg-ac-20091-aa-positive_terminal_cell_holder_ac-20091-aa-positive_terminal_cell_holder
** 	contact_region_16-contact_region_17-contact_region_174-contact_region_18-trg-volume_volume
** 	contact_region_161-contact_region_196-contact_region_81-src
** 	contact_region_161-contact_region_196-contact_region_81-trg-ac-20091-aa-positive_terminal_cell_holder_ac-20091-aa-positive_terminal_cell_holder
** 	contact_region_161-contact_region_196-contact_region_81-trg-ac-20092-aa-negative_terminal_cell_holder_ac-20092-aa-negative_terminal_cell_holder
** 	contact_region_161-contact_region_196-contact_region_81-trg-volume_volume
** 	contact_region_163-contact_region_198-contact_region_82-src
** 	contact_region_163-contact_region_198-contact_region_82-trg-ac-20091-aa-positive_terminal_cell_holder_ac-20091-aa-positive_terminal_cell_holder
** 	contact_region_163-contact_region_198-contact_region_82-trg-ac-20092-aa-negative_terminal_cell_holder_ac-20092-aa-negative_terminal_cell_holder
** 	contact_region_163-contact_region_198-contact_region_82-trg-volume_volume
** 	contact_region_165-contact_region_200-contact_region_83-src
** 	contact_region_165-contact_region_200-contact_region_83-trg-ac-20091-aa-positive_terminal_cell_holder_ac-20091-aa-positive_terminal_cell_holder
** 	contact_region_165-contact_region_200-contact_region_83-trg-ac-20092-aa-negative_terminal_cell_holder_ac-20092-aa-negative_terminal_cell_holder
** 	contact_region_165-contact_region_200-contact_region_83-trg-volume_volume
** 	contact_region_167-contact_region_202-contact_region_84-src
** 	contact_region_167-contact_region_202-contact_region_84-trg-ac-20091-aa-positive_terminal_cell_holder_ac-20091-aa-positive_terminal_cell_holder
** 	contact_region_167-contact_region_202-contact_region_84-trg-ac-20092-aa-negative_terminal_cell_holder_ac-20092-aa-negative_terminal_cell_holder
** 	contact_region_167-contact_region_202-contact_region_84-trg-volume_volume
** 	contact_region_168-src
** 	contact_region_168-trg
** 	contact_region_169-contact_region_204-contact_region_85-src
** 	contact_region_169-contact_region_204-contact_region_85-trg-ac-20091-aa-positive_terminal_cell_holder_ac-20091-aa-positive_terminal_cell_holder
** 	contact_region_169-contact_region_204-contact_region_85-trg-ac-20092-aa-negative_terminal_cell_holder_ac-20092-aa-negative_terminal_cell_holder
** 	contact_region_169-contact_region_204-contact_region_85-trg-volume_volume
** 	contact_region_170-src
** 	contact_region_170-trg
** 	contact_region_171-contact_region_206-contact_region_86-src
** 	contact_region_171-contact_region_206-contact_region_86-trg-ac-20091-aa-positive_terminal_cell_holder_ac-20091-aa-positive_terminal_cell_holder
** 	contact_region_171-contact_region_206-contact_region_86-trg-ac-20092-aa-negative_terminal_cell_holder_ac-20092-aa-negative_terminal_cell_holder
** 	contact_region_171-contact_region_206-contact_region_86-trg-volume_volume
** 	contact_region_173-contact_region_208-contact_region_87-src
** 	contact_region_173-contact_region_208-contact_region_87-trg-ac-20091-aa-positive_terminal_cell_holder_ac-20091-aa-positive_terminal_cell_holder
** 	contact_region_173-contact_region_208-contact_region_87-trg-ac-20092-aa-negative_terminal_cell_holder_ac-20092-aa-negative_terminal_cell_holder
** 	contact_region_173-contact_region_208-contact_region_87-trg-volume_volume
** 	contact_region_175-contact_region_210-contact_region_88-src
** 	contact_region_175-contact_region_210-contact_region_88-trg-ac-20091-aa-positive_terminal_cell_holder_ac-20091-aa-positive_terminal_cell_holder
** 	contact_region_175-contact_region_210-contact_region_88-trg-ac-20092-aa-negative_terminal_cell_holder_ac-20092-aa-negative_terminal_cell_holder
** 	contact_region_175-contact_region_210-contact_region_88-trg-volume_volume
** 	contact_region_176-src
** 	contact_region_176-trg
** 	contact_region_177-contact_region_212-contact_region_89-src
** 	contact_region_177-contact_region_212-contact_region_89-trg-ac-20091-aa-positive_terminal_cell_holder_ac-20091-aa-positive_terminal_cell_holder
** 	contact_region_177-contact_region_212-contact_region_89-trg-ac-20092-aa-negative_terminal_cell_holder_ac-20092-aa-negative_terminal_cell_holder
** 	contact_region_177-contact_region_212-contact_region_89-trg-volume_volume
** 	contact_region_178-src
** 	contact_region_178-trg
** 	contact_region_179-contact_region_214-contact_region_90-src
** 	contact_region_179-contact_region_214-contact_region_90-trg-ac-20091-aa-positive_terminal_cell_holder_ac-20091-aa-positive_terminal_cell_holder
** 	contact_region_179-contact_region_214-contact_region_90-trg-ac-20092-aa-negative_terminal_cell_holder_ac-20092-aa-negative_terminal_cell_holder
** 	contact_region_179-contact_region_214-contact_region_90-trg-volume_volume
** 	contact_region_180-contact_region_64-contact_region_71-contact_region_60-contact_region_61-contact_region_64-src-part6^basic_subpack_geometry_for_cfd_part6^basic_subpack_geometry_for_cfd
** 	contact_region_180-contact_region_64-contact_region_71-contact_region_60-contact_region_61-contact_region_64-src-part6^basic_subpack_geometry_for_cfd-0_part6^basic_subpack_geometry_for_cfd
** 	contact_region_180-contact_region_64-contact_region_71-contact_region_60-contact_region_61-contact_region_64-src-ac-20091-aa-positive_terminal_cell_holder_ac-20091-aa-positive_terminal_cell_holder
** 	contact_region_180-contact_region_64-contact_region_71-contact_region_60-contact_region_61-contact_region_64-trg-part7^basic_subpack_geometry_for_cfd_part7^basic_subpack_geometry_for_cfd
** 	contact_region_180-contact_region_64-contact_region_71-contact_region_60-contact_region_61-contact_region_64-trg-part3^basic_subpack_geometry_for_cfd_part3^basic_subpack_geometry_for_cfd
** 	contact_region_180-contact_region_64-contact_region_71-contact_region_60-contact_region_61-contact_region_64-trg-volume_volume
** 	contact_region_181-contact_region_216-contact_region_91-src
** 	contact_region_181-contact_region_216-contact_region_91-trg-ac-20091-aa-positive_terminal_cell_holder_ac-20091-aa-positive_terminal_cell_holder
** 	contact_region_181-contact_region_216-contact_region_91-trg-ac-20092-aa-negative_terminal_cell_holder_ac-20092-aa-negative_terminal_cell_holder
** 	contact_region_181-contact_region_216-contact_region_91-trg-volume_volume
** 	contact_region_183-contact_region_218-contact_region_92-src
** 	contact_region_183-contact_region_218-contact_region_92-trg-ac-20091-aa-positive_terminal_cell_holder_ac-20091-aa-positive_terminal_cell_holder
** 	contact_region_183-contact_region_218-contact_region_92-trg-ac-20092-aa-negative_terminal_cell_holder_ac-20092-aa-negative_terminal_cell_holder
** 	contact_region_183-contact_region_218-contact_region_92-trg-volume_volume
** 	contact_region_185-contact_region_220-contact_region_93-src
** 	contact_region_185-contact_region_220-contact_region_93-trg-ac-20091-aa-positive_terminal_cell_holder_ac-20091-aa-positive_terminal_cell_holder
** 	contact_region_185-contact_region_220-contact_region_93-trg-ac-20092-aa-negative_terminal_cell_holder_ac-20092-aa-negative_terminal_cell_holder
** 	contact_region_185-contact_region_220-contact_region_93-trg-volume_volume
** 	contact_region_187-contact_region_222-contact_region_94-src
** 	contact_region_187-contact_region_222-contact_region_94-trg-ac-20091-aa-positive_terminal_cell_holder_ac-20091-aa-positive_terminal_cell_holder
** 	contact_region_187-contact_region_222-contact_region_94-trg-ac-20092-aa-negative_terminal_cell_holder_ac-20092-aa-negative_terminal_cell_holder
** 	contact_region_187-contact_region_222-contact_region_94-trg-volume_volume
** 	contact_region_189-contact_region_224-contact_region_95-src
** 	contact_region_189-contact_region_224-contact_region_95-trg-ac-20091-aa-positive_terminal_cell_holder_ac-20091-aa-positive_terminal_cell_holder
** 	contact_region_189-contact_region_224-contact_region_95-trg-ac-20092-aa-negative_terminal_cell_holder_ac-20092-aa-negative_terminal_cell_holder
** 	contact_region_189-contact_region_224-contact_region_95-trg-volume_volume
** 	contact_region_191-contact_region_226-contact_region_96-src
** 	contact_region_191-contact_region_226-contact_region_96-trg-ac-20091-aa-positive_terminal_cell_holder_ac-20091-aa-positive_terminal_cell_holder
** 	contact_region_191-contact_region_226-contact_region_96-trg-ac-20092-aa-negative_terminal_cell_holder_ac-20092-aa-negative_terminal_cell_holder
** 	contact_region_191-contact_region_226-contact_region_96-trg-volume_volume
** 	contact_region_193-contact_region_228-contact_region_97-src
** 	contact_region_193-contact_region_228-contact_region_97-trg-ac-20091-aa-positive_terminal_cell_holder_ac-20091-aa-positive_terminal_cell_holder
** 	contact_region_193-contact_region_228-contact_region_97-trg-ac-20092-aa-negative_terminal_cell_holder_ac-20092-aa-negative_terminal_cell_holder
** 	contact_region_193-contact_region_228-contact_region_97-trg-volume_volume
** 	contact_region_195-contact_region_230-contact_region_98-src
** 	contact_region_195-contact_region_230-contact_region_98-trg-ac-20091-aa-positive_terminal_cell_holder_ac-20091-aa-positive_terminal_cell_holder
** 	contact_region_195-contact_region_230-contact_region_98-trg-ac-20092-aa-negative_terminal_cell_holder_ac-20092-aa-negative_terminal_cell_holder
** 	contact_region_195-contact_region_230-contact_region_98-trg-volume_volume
** 	contact_region_197-contact_region_232-contact_region_99-src
** 	contact_region_197-contact_region_232-contact_region_99-trg-ac-20091-aa-positive_terminal_cell_holder_ac-20091-aa-positive_terminal_cell_holder
** 	contact_region_197-contact_region_232-contact_region_99-trg-ac-20092-aa-negative_terminal_cell_holder_ac-20092-aa-negative_terminal_cell_holder
** 	contact_region_197-contact_region_232-contact_region_99-trg-volume_volume
** 	contact_region_67-src
** 	contact_region_67-trg
** 	contact_region_68-src
** 	contact_region_68-trg
** 	contact_region_69-src
** 	contact_region_69-trg
** 	contact_region_70-src
** 	contact_region_70-trg
**
** Please ensure that your current Setup is valid.
************************************************************************
************************************************************************
"Updating Setup cell..."
"Updating Solution cell..."
Reading C:\\Users\\sean8\\Desktop\\frucd code\\ANSYS SHIT\\Angled_Subpack_files\\dp0\\FFF\\Fluent\\FFF.ip...
Reading IP data ...
	x-coord
	y-coord
	z-coord
	pressure
	x-velocity
	y-velocity
	z-velocity
	k
	omega
	hyb_init-0
	hyb_init-1
  Done.
  Initializing values...
  Done.
("Mesh-operation and/or zone settings are incompatible. First resolve it manually
 by visiting 'File->Recorded Mesh Operations->Edit Incoming Zones... -> Match Zone Names...' .")

Error: Mesh-operation and/or zone settings are incompatible. First resolve it manually
 by visiting 'File->Recorded Mesh Operations->Edit Incoming Zones... -> Match Zone Names...' .
Error Object: #f

Performance Timer for 0 iterations on 1 compute node
  Average wall-clock time per iteration:                0.000 sec
  Global reductions per iteration:                          0 ops
  Global reductions time per iteration:                 0.000 sec (0.0%)
  Message count per iteration:                              0 messages
  Data transfer per iteration:                          0.000 MB
  LE solves per iteration:                                  0 solves
  LE wall-clock time per iteration:                     0.000 sec (0.0%)
  LE global solves per iteration:                           0 solves
  LE global wall-clock time per iteration:              0.000 sec (0.0%)
  LE global matrix maximum size:                            0
  AMG cycles per iteration:                             0.000 cycles
  Relaxation sweeps per iteration:                          0 sweeps
  Relaxation exchanges per iteration:                       0 exchanges
  LE early protections (stall) per iteration:           0.000 times
  LE early protections (divergence) per iteration:      0.000 times
  Total SVARS touched:                                    382

  Total wall-clock time:                                0.000 sec

Transcript Stop Time:  16:25:55, 11 Oct 2024 Pacific Daylight Time 
Total Transcript Time: 1 Minute 5 Second.
