Transcript Start Time:  21:20:31, 02 Sep 2025 Mountain Daylight Time 
Current Directory: "C:\Users\sean8"

Build Time: Jun 16 2025 10:42:46 EDT 
Executable Path: C:/PROGRA~1/ANSYSI~1/ANSYSS~1/v252/fluent/ntbin/win64/fluent.exe

---------------------------------------------------------------------------------------
ID    Hostname         Core  O.S.         PID    Vendor                               
---------------------------------------------------------------------------------------
n3    DESKTOP-D190TQ3  4/16  Windows-x64  21408  AMD Ryzen 7 7700X 8-Core Processor   
n2    DESKTOP-D190TQ3  3/16  Windows-x64  13140  AMD Ryzen 7 7700X 8-Core Processor   
n1    DESKTOP-D190TQ3  2/16  Windows-x64  24476  AMD Ryzen 7 7700X 8-Core Processor   
n0*   DESKTOP-D190TQ3  1/16  Windows-x64  20944  AMD Ryzen 7 7700X 8-Core Processor   
host  DESKTOP-D190TQ3        Windows-x64  15380  AMD Ryzen 7 7700X 8-Core Processor   

MPI Option Selected: intel
Selected system interconnect: default
---------------------------------------------------------------------------------------

Cortex Process ID: 32512 
License Server Path: () 
Reading "C:\Users\sean8\AppData\Local\Temp\WB_sean8_8080_2\wbnew_files\dp0\FFF\Fluent\FFF.2.msh.h5" ...
3D mesh
nodes: 31881
edges: 681
faces: 31663 
cells: 4706 
reading 16 node zones
reading 13 edge zones
reading 10 face zones
reading 3 cell zones
generating pointers...done.
extracting boundary entities...
 9104 boundary nodes.
 2175 boundary faces.
 7 boundary face zones.
done.
generating cells...done.
analyzing boundary connectivity...done.
Fast-loading "C:\PROGRA~1\ANSYSI~1\ANSYSS~1\v252\fluent\fluent25.2.0\\addons\afd\lib\hdfio.bin"
Done.
Writing "C:\Users\sean8\AppData\Local\Temp\WB_sean8_8080_2\wbnew_files\dp0\FFF\Fluent\FFF.2.msh.h5" ...
writing 16 node zones
writing 13 edge zones 
writing 10 face zones 
writing 3 cell zones 
writing boundary layer flags
writing node curvature data
done.Transcript Stop Time:  21:20:33, 02 Sep 2025 Mountain Daylight Time 
Total Transcript Time: 0 Minute 2 Second.
