Transcript Start Time:  12:56:20, 04 Sep 2025 Pacific Daylight Time 
Current Directory: "C:\Users\Owner\Documents\GitHub\Cooling_Modelling\Subpack Conjugate Heat Transfer\Third Test"

Build Time: Jun 16 2025 10:42:46 EDT 
Executable Path: C:/PROGRA~1/ANSYSI~1/ANSYSS~1/v252/fluent/ntbin/win64/fluent.exe

------------------------------------------------------------------------------------------
ID    Hostname         Core  O.S.         PID    Vendor                                  
------------------------------------------------------------------------------------------
n3    LAPTOP-DHFQ1JFI  4/16  Windows-x64  9712   AMD Ryzen 7 6800H with Radeon Graphics  
n2    LAPTOP-DHFQ1JFI  3/16  Windows-x64  6328   AMD Ryzen 7 6800H with Radeon Graphics  
n1    LAPTOP-DHFQ1JFI  2/16  Windows-x64  26244  AMD Ryzen 7 6800H with Radeon Graphics  
n0*   LAPTOP-DHFQ1JFI  1/16  Windows-x64  9068   AMD Ryzen 7 6800H with Radeon Graphics  
host  LAPTOP-DHFQ1JFI        Windows-x64  4944   AMD Ryzen 7 6800H with Radeon Graphics  

MPI Option Selected: intel
Selected system interconnect: default
------------------------------------------------------------------------------------------

Cortex Process ID: 8732 
License Server Path: () 
Fast-loading "C:\PROGRA~1\ANSYSI~1\ANSYSS~1\v252\fluent\fluent25.2.0\\addons\afd\lib\hdfio.bin"
Done.

LAPTOP-DHFQ1JFI is already loaded (42.9282).                       Process affinity not being set.

Reading from LAPTOP-DHFQ1JFI:"C:\Users\Owner\Documents\GitHub\Cooling_Modelling\Subpack Conjugate Heat Transfer\Third Test\without interloper_files\dp0\FFF\Fluent\FFF.2.msh.h5" in NODE0 mode ...
  Reading mesh ...
      452424 cells,    78 cell zones ...
         205100 polyhedra cells,  zone id: 88310
           3034 polyhedra cells,  zone id: 88313
           2991 polyhedra cells,  zone id: 88316
           3080 polyhedra cells,  zone id: 88319
           3017 polyhedra cells,  zone id: 88322
           2996 polyhedra cells,  zone id: 88325
           3002 polyhedra cells,  zone id: 88328
           3055 polyhedra cells,  zone id: 88331
           2999 polyhedra cells,  zone id: 88334
           3006 polyhedra cells,  zone id: 88337
           3017 polyhedra cells,  zone id: 88340
           2982 polyhedra cells,  zone id: 88343
           3014 polyhedra cells,  zone id: 88346
           2974 polyhedra cells,  zone id: 88349
           3000 polyhedra cells,  zone id: 88352
           2959 polyhedra cells,  zone id: 88355
           3052 polyhedra cells,  zone id: 88358
           3038 polyhedra cells,  zone id: 88361
           3081 polyhedra cells,  zone id: 88364
           3005 polyhedra cells,  zone id: 88367
           2978 polyhedra cells,  zone id: 88370
           2959 polyhedra cells,  zone id: 88373
          20549 polyhedra cells,  zone id: 88376
           3037 polyhedra cells,  zone id: 88379
           2981 polyhedra cells,  zone id: 88382
           3004 polyhedra cells,  zone id: 88385
           3003 polyhedra cells,  zone id: 88388
           3045 polyhedra cells,  zone id: 88391
           2935 polyhedra cells,  zone id: 88394
           3000 polyhedra cells,  zone id: 88397
           2989 polyhedra cells,  zone id: 88400
           3004 polyhedra cells,  zone id: 88403
           2991 polyhedra cells,  zone id: 88406
           2997 polyhedra cells,  zone id: 88409
           2987 polyhedra cells,  zone id: 88412
           3010 polyhedra cells,  zone id: 88415
           2983 polyhedra cells,  zone id: 88418
           2978 polyhedra cells,  zone id: 88421
           2979 polyhedra cells,  zone id: 88424
           2985 polyhedra cells,  zone id: 88427
           2967 polyhedra cells,  zone id: 88430
           3019 polyhedra cells,  zone id: 88433
           3000 polyhedra cells,  zone id: 88436
           2994 polyhedra cells,  zone id: 88439
           3013 polyhedra cells,  zone id: 88442
           3000 polyhedra cells,  zone id: 88445
           2991 polyhedra cells,  zone id: 88448
           2976 polyhedra cells,  zone id: 88451
           3003 polyhedra cells,  zone id: 88454
           3002 polyhedra cells,  zone id: 88457
           3043 polyhedra cells,  zone id: 88460
           3023 polyhedra cells,  zone id: 88463
           3025 polyhedra cells,  zone id: 88466
           2993 polyhedra cells,  zone id: 88469
           2969 polyhedra cells,  zone id: 88472
           2992 polyhedra cells,  zone id: 88475
           2968 polyhedra cells,  zone id: 88478
           2982 polyhedra cells,  zone id: 88481
           3004 polyhedra cells,  zone id: 88484
           2985 polyhedra cells,  zone id: 88487
           3033 polyhedra cells,  zone id: 88490
           2959 polyhedra cells,  zone id: 88493
           3006 polyhedra cells,  zone id: 88496
           4867 polyhedra cells,  zone id: 88499
           2966 polyhedra cells,  zone id: 88502
           2965 polyhedra cells,  zone id: 88505
           2959 polyhedra cells,  zone id: 88508
           3013 polyhedra cells,  zone id: 88511
           2977 polyhedra cells,  zone id: 88514
           2954 polyhedra cells,  zone id: 88517
           4920 polyhedra cells,  zone id: 88520
           2999 polyhedra cells,  zone id: 88523
            519 polyhedra cells,  zone id: 88526
           2994 polyhedra cells,  zone id: 88529
           2990 polyhedra cells,  zone id: 88532
           2988 polyhedra cells,  zone id: 88535
           3038 polyhedra cells,  zone id: 88538
            532 polyhedra cells,  zone id: 88541
     2920630 faces,   239 face zones ...
           2556 polygonal interior faces,  zone id: 88540
          18697 polygonal interior faces,  zone id: 88537
          18347 polygonal interior faces,  zone id: 88534
          18331 polygonal interior faces,  zone id: 88531
          18411 polygonal interior faces,  zone id: 88528
           2461 polygonal interior faces,  zone id: 88525
          18506 polygonal interior faces,  zone id: 88522
          29705 polygonal interior faces,  zone id: 88519
          18069 polygonal interior faces,  zone id: 88516
          18283 polygonal interior faces,  zone id: 88513
          18539 polygonal interior faces,  zone id: 88510
          18158 polygonal interior faces,  zone id: 88507
          18207 polygonal interior faces,  zone id: 88504
          18143 polygonal interior faces,  zone id: 88501
          29304 polygonal interior faces,  zone id: 88498
          18468 polygonal interior faces,  zone id: 88495
          18169 polygonal interior faces,  zone id: 88492
          18609 polygonal interior faces,  zone id: 88489
          18401 polygonal interior faces,  zone id: 88486
          18424 polygonal interior faces,  zone id: 88483
          18349 polygonal interior faces,  zone id: 88480
          18209 polygonal interior faces,  zone id: 88477
          18380 polygonal interior faces,  zone id: 88474
          18226 polygonal interior faces,  zone id: 88471
          18353 polygonal interior faces,  zone id: 88468
          18604 polygonal interior faces,  zone id: 88465
          18646 polygonal interior faces,  zone id: 88462
          18799 polygonal interior faces,  zone id: 88459
          18443 polygonal interior faces,  zone id: 88456
          18436 polygonal interior faces,  zone id: 88453
          18248 polygonal interior faces,  zone id: 88450
          18380 polygonal interior faces,  zone id: 88447
          18517 polygonal interior faces,  zone id: 88444
          18468 polygonal interior faces,  zone id: 88441
          18382 polygonal interior faces,  zone id: 88438
          18405 polygonal interior faces,  zone id: 88435
          18617 polygonal interior faces,  zone id: 88432
          18214 polygonal interior faces,  zone id: 88429
          18301 polygonal interior faces,  zone id: 88426
          18254 polygonal interior faces,  zone id: 88423
          18293 polygonal interior faces,  zone id: 88420
          18307 polygonal interior faces,  zone id: 88417
          18501 polygonal interior faces,  zone id: 88414
          18314 polygonal interior faces,  zone id: 88411
          18406 polygonal interior faces,  zone id: 88408
          18399 polygonal interior faces,  zone id: 88405
          18527 polygonal interior faces,  zone id: 88402
          18381 polygonal interior faces,  zone id: 88399
          18439 polygonal interior faces,  zone id: 88396
          18020 polygonal interior faces,  zone id: 88393
          18746 polygonal interior faces,  zone id: 88390
          18477 polygonal interior faces,  zone id: 88387
          18535 polygonal interior faces,  zone id: 88384
          18290 polygonal interior faces,  zone id: 88381
          18750 polygonal interior faces,  zone id: 88378
         134079 polygonal interior faces,  zone id: 88375
          18162 polygonal interior faces,  zone id: 88372
          18326 polygonal interior faces,  zone id: 88369
          18483 polygonal interior faces,  zone id: 88366
          19064 polygonal interior faces,  zone id: 88363
          18801 polygonal interior faces,  zone id: 88360
          18871 polygonal interior faces,  zone id: 88357
          18225 polygonal interior faces,  zone id: 88354
          18458 polygonal interior faces,  zone id: 88351
          18261 polygonal interior faces,  zone id: 88348
          18661 polygonal interior faces,  zone id: 88345
          18296 polygonal interior faces,  zone id: 88342
          18599 polygonal interior faces,  zone id: 88339
          18607 polygonal interior faces,  zone id: 88336
          18394 polygonal interior faces,  zone id: 88333
          18893 polygonal interior faces,  zone id: 88330
          18437 polygonal interior faces,  zone id: 88327
          18371 polygonal interior faces,  zone id: 88324
          18617 polygonal interior faces,  zone id: 88321
          19049 polygonal interior faces,  zone id: 88318
          18375 polygonal interior faces,  zone id: 88315
          18765 polygonal interior faces,  zone id: 88312
        1249799 polygonal interior faces,  zone id: 88309
            434 polygonal wall faces,  zone id: 81162
            426 polygonal wall faces,  zone id: 81161
           2517 polygonal wall faces,  zone id: 49543
           1158 polygonal wall faces,  zone id: 37055
           1170 polygonal wall faces,  zone id: 36432
           1175 polygonal wall faces,  zone id: 35809
           1163 polygonal wall faces,  zone id: 35277
           1166 polygonal wall faces,  zone id: 34650
           1164 polygonal wall faces,  zone id: 34298
           1168 polygonal wall faces,  zone id: 33675
           1168 polygonal wall faces,  zone id: 33142
           1161 polygonal wall faces,  zone id: 32534
           1171 polygonal wall faces,  zone id: 31912
           1167 polygonal wall faces,  zone id: 31425
           1170 polygonal wall faces,  zone id: 30802
           1164 polygonal wall faces,  zone id: 30192
           1168 polygonal wall faces,  zone id: 29838
           1171 polygonal wall faces,  zone id: 29484
           1167 polygonal wall faces,  zone id: 29195
           1160 polygonal wall faces,  zone id: 29118
           1168 polygonal wall faces,  zone id: 28479
           1167 polygonal wall faces,  zone id: 27855
           1175 polygonal wall faces,  zone id: 27535
           1168 polygonal wall faces,  zone id: 27064
           1165 polygonal wall faces,  zone id: 26986
           1157 polygonal wall faces,  zone id: 26375
           1168 polygonal wall faces,  zone id: 26003
           1181 polygonal wall faces,  zone id: 25926
           1164 polygonal wall faces,  zone id: 25322
           1161 polygonal wall faces,  zone id: 24953
           1173 polygonal wall faces,  zone id: 24617
           1172 polygonal wall faces,  zone id: 24021
           1171 polygonal wall faces,  zone id: 23635
           1165 polygonal wall faces,  zone id: 23556
           1170 polygonal wall faces,  zone id: 22917
           1171 polygonal wall faces,  zone id: 22566
           1170 polygonal wall faces,  zone id: 21956
           1172 polygonal wall faces,  zone id: 21587
           1163 polygonal wall faces,  zone id: 21238
           1172 polygonal wall faces,  zone id: 20703
           1178 polygonal wall faces,  zone id: 20352
           1172 polygonal wall faces,  zone id: 20238
           1163 polygonal wall faces,  zone id: 20143
           1169 polygonal wall faces,  zone id: 19754
           1168 polygonal wall faces,  zone id: 19640
           1162 polygonal wall faces,  zone id: 19544
           1169 polygonal wall faces,  zone id: 19179
           1170 polygonal wall faces,  zone id: 19084
           1164 polygonal wall faces,  zone id: 18730
           1167 polygonal wall faces,  zone id: 18362
           1171 polygonal wall faces,  zone id: 17998
           1162 polygonal wall faces,  zone id: 17906
           1170 polygonal wall faces,  zone id: 17810
           1172 polygonal wall faces,  zone id: 17439
           1165 polygonal wall faces,  zone id: 17365
           1174 polygonal wall faces,  zone id: 16978
           1182 polygonal wall faces,  zone id: 16882
           1175 polygonal wall faces,  zone id: 16562
           1154 polygonal wall faces,  zone id: 15985
           1164 polygonal wall faces,  zone id: 15871
           1153 polygonal wall faces,  zone id: 15775
           1169 polygonal wall faces,  zone id: 15388
           1168 polygonal wall faces,  zone id: 15274
           1163 polygonal wall faces,  zone id: 15182
           1165 polygonal wall faces,  zone id: 15090
           1164 polygonal wall faces,  zone id: 14976
           1167 polygonal wall faces,  zone id: 14862
           1171 polygonal wall faces,  zone id: 14748
           1168 polygonal wall faces,  zone id: 14652
           1169 polygonal wall faces,  zone id: 14283
           1176 polygonal wall faces,  zone id: 13911
           1170 polygonal wall faces,  zone id: 13797
           1155 polygonal wall faces,  zone id: 13683
           1169 polygonal wall faces,  zone id: 13569
           1162 polygonal wall faces,  zone id: 13477
            124 polygonal wall faces,  zone id: 5062
            135 polygonal wall faces,  zone id: 3808
            254 polygonal velocity-inlet faces,  zone id: 342
            248 polygonal wall faces,  zone id: 341
            260 polygonal velocity-inlet faces,  zone id: 340
            249 polygonal wall faces,  zone id: 339
           3636 polygonal wall faces,  zone id: 338
             11 polygonal pressure-outlet faces,  zone id: 337
            754 polygonal wall faces,  zone id: 336
           1431 polygonal wall faces,  zone id: 335
            276 polygonal wall faces,  zone id: 331
            279 polygonal wall faces,  zone id: 330
            282 polygonal wall faces,  zone id: 329
            279 polygonal wall faces,  zone id: 328
            279 polygonal wall faces,  zone id: 327
            280 polygonal wall faces,  zone id: 326
            287 polygonal wall faces,  zone id: 325
            274 polygonal wall faces,  zone id: 324
            285 polygonal wall faces,  zone id: 323
            286 polygonal wall faces,  zone id: 322
            282 polygonal wall faces,  zone id: 321
            288 polygonal wall faces,  zone id: 320
            274 polygonal wall faces,  zone id: 319
            280 polygonal wall faces,  zone id: 318
            280 polygonal wall faces,  zone id: 317
            281 polygonal wall faces,  zone id: 316
            284 polygonal wall faces,  zone id: 315
            275 polygonal wall faces,  zone id: 314
            286 polygonal wall faces,  zone id: 313
            280 polygonal wall faces,  zone id: 312
            277 polygonal wall faces,  zone id: 311
            278 polygonal wall faces,  zone id: 310
            281 polygonal wall faces,  zone id: 309
            280 polygonal wall faces,  zone id: 308
            272 polygonal wall faces,  zone id: 307
            272 polygonal wall faces,  zone id: 306
            280 polygonal wall faces,  zone id: 305
            279 polygonal wall faces,  zone id: 304
            275 polygonal wall faces,  zone id: 303
            280 polygonal wall faces,  zone id: 302
            279 polygonal wall faces,  zone id: 301
            281 polygonal wall faces,  zone id: 300
            282 polygonal wall faces,  zone id: 299
            282 polygonal wall faces,  zone id: 298
            283 polygonal wall faces,  zone id: 297
            283 polygonal wall faces,  zone id: 296
            283 polygonal wall faces,  zone id: 295
            279 polygonal wall faces,  zone id: 294
            286 polygonal wall faces,  zone id: 293
            281 polygonal wall faces,  zone id: 292
            281 polygonal wall faces,  zone id: 291
            276 polygonal wall faces,  zone id: 290
            280 polygonal wall faces,  zone id: 289
            282 polygonal wall faces,  zone id: 288
            283 polygonal wall faces,  zone id: 287
            279 polygonal wall faces,  zone id: 286
            276 polygonal wall faces,  zone id: 285
            274 polygonal wall faces,  zone id: 284
            276 polygonal wall faces,  zone id: 283
            275 polygonal wall faces,  zone id: 282
            284 polygonal wall faces,  zone id: 281
            282 polygonal wall faces,  zone id: 280
            283 polygonal wall faces,  zone id: 279
            281 polygonal wall faces,  zone id: 278
            278 polygonal wall faces,  zone id: 277
            273 polygonal wall faces,  zone id: 276
            284 polygonal wall faces,  zone id: 275
            283 polygonal wall faces,  zone id: 274
            276 polygonal wall faces,  zone id: 273
            280 polygonal wall faces,  zone id: 272
            280 polygonal wall faces,  zone id: 271
            274 polygonal wall faces,  zone id: 270
            278 polygonal wall faces,  zone id: 269
            275 polygonal wall faces,  zone id: 268
            279 polygonal wall faces,  zone id: 267
            283 polygonal wall faces,  zone id: 266
            280 polygonal wall faces,  zone id: 265
            282 polygonal wall faces,  zone id: 264
            283 polygonal wall faces,  zone id: 263
            282 polygonal wall faces,  zone id: 262
            268 polygonal wall faces,  zone id: 261
            272 polygonal wall faces,  zone id: 260
          27771 polygonal wall faces,  zone id: 259
            343 polygonal wall faces,  zone id: 334
            753 polygonal wall faces,  zone id: 333
           1091 polygonal wall faces,  zone id: 332
     2835459 nodes,   411 node zones ...

Building...
     mesh
	distributing mesh
		parts....,
		faces....,
		nodes....,
		cells....,
        bandwidth reduction using Reverse Cuthill-McKee: 53551/1560 = 34.3276
     materials,
     interface,
     domains,
     zones,
	default-default:1-with-holes-the-air-region-shadow
	default-default-with-holes-the-air-region-shadow
	solid-with-holes-the-air-region_1-shadow
	cells2-walls:10-with-holes-the-air-region-shadow
	cells2-walls:37-with-holes-the-air-region-shadow
	cells2-walls:60-with-holes-the-air-region-shadow
	cells2-walls:54-with-holes-the-air-region-shadow
	cells2-walls:55-with-holes-the-air-region-shadow
	cells2-walls:30-with-holes-the-air-region-shadow
	cells2-walls:66-with-holes-the-air-region-shadow
	cells2-walls:14-with-holes-the-air-region-shadow
	cells2-walls:43-with-holes-the-air-region-shadow
	cells2-walls:44-with-holes-the-air-region-shadow
	cells2-walls:21-with-holes-the-air-region-shadow
	cells2-walls:2-with-holes-the-air-region-shadow
	cells2-walls:32-with-holes-the-air-region-shadow
	cells2-walls:39-with-holes-the-air-region-shadow
	cells2-walls:45-with-holes-the-air-region-shadow
	cells2-walls:47-with-holes-the-air-region-shadow
	cells2-walls:58-with-holes-the-air-region-shadow
	cells2-walls:15-with-holes-the-air-region-shadow
	cells2-walls:19-with-holes-the-air-region-shadow
	cells2-walls:27-with-holes-the-air-region-shadow
	cells2-walls:46-with-holes-the-air-region-shadow
	cells2-walls:38-with-holes-the-air-region-shadow
	cells2-walls:8-with-holes-the-air-region-shadow
	cells2-walls:12-with-holes-the-air-region-shadow
	cells2-walls:11-with-holes-the-air-region-shadow
	cells2-walls:22-with-holes-the-air-region-shadow
	cells2-walls:40-with-holes-the-air-region-shadow
	cells2-walls:63-with-holes-the-air-region-shadow
	cells2-walls:4-with-holes-the-air-region-shadow
	cells2-walls:13-with-holes-the-air-region-shadow
	cells2-walls:50-with-holes-the-air-region-shadow
	cells2-walls:20-with-holes-the-air-region-shadow
	cells2-walls:31-with-holes-the-air-region-shadow
	cells2-walls:51-with-holes-the-air-region-shadow
	cells2-walls:61-with-holes-the-air-region-shadow
	cells2-walls:3-with-holes-the-air-region-shadow
	cells2-walls:64-with-holes-the-air-region-shadow
	cells2-walls:70-with-holes-the-air-region-shadow
	cells2-walls:17-with-holes-the-air-region-shadow
	cells2-walls:33-with-holes-the-air-region-shadow
	cells2-walls:41-with-holes-the-air-region-shadow
	cells2-walls:6-with-holes-the-air-region-shadow
	cells2-walls:9-with-holes-the-air-region-shadow
	cells2-walls:25-with-holes-the-air-region-shadow
	cells2-walls:34-with-holes-the-air-region-shadow
	cells2-walls:49-with-holes-the-air-region-shadow
	cells2-walls:18-with-holes-the-air-region-shadow
	cells2-walls:48-with-holes-the-air-region-shadow
	cells2-walls-with-holes-the-air-region-shadow
	cells2-walls:5-with-holes-the-air-region-shadow
	cells2-walls:29-with-holes-the-air-region-shadow
	cells2-walls:71-with-holes-the-air-region-shadow
	cells2-walls:16-with-holes-the-air-region-shadow
	cells2-walls:52-with-holes-the-air-region-shadow
	cells2-walls:26-with-holes-the-air-region-shadow
	cells2-walls:23-with-holes-the-air-region-shadow
	cells2-walls:36-with-holes-the-air-region-shadow
	cells2-walls:57-with-holes-the-air-region-shadow
	cells2-walls:7-with-holes-the-air-region-shadow
	cells2-walls:56-with-holes-the-air-region-shadow
	cells2-walls:59-with-holes-the-air-region-shadow
	cells2-walls:24-with-holes-the-air-region-shadow
	cells2-walls:28-with-holes-the-air-region-shadow
	cells2-walls:53-with-holes-the-air-region-shadow
	cells2-walls:42-with-holes-the-air-region-shadow
	cells2-walls:67-with-holes-the-air-region-shadow
	cells2-walls:68-with-holes-the-air-region-shadow
	cells2-walls:65-with-holes-the-air-region-shadow
	cells2-walls:35-with-holes-the-air-region-shadow
	cells2-walls:69-with-holes-the-air-region-shadow
	cells2-walls:62-with-holes-the-air-region-shadow
	cells2-walls:1-with-holes-the-air-region-shadow
	default-default-1-fluid:2-shadow
	default-default-solid:2_1-shadow
	Skipping thread 174 of domain 1 (not referenced by grid).
	Skipping thread 175 of domain 1 (not referenced by grid).
	Skipping thread 176 of domain 1 (not referenced by grid).
	Skipping thread 177 of domain 1 (not referenced by grid).
	Skipping thread 178 of domain 1 (not referenced by grid).
	Skipping thread 179 of domain 1 (not referenced by grid).
	Skipping thread 180 of domain 1 (not referenced by grid).
	Skipping thread 181 of domain 1 (not referenced by grid).
	Skipping thread 182 of domain 1 (not referenced by grid).
	Skipping thread 183 of domain 1 (not referenced by grid).
	Skipping thread 184 of domain 1 (not referenced by grid).
	Skipping thread 185 of domain 1 (not referenced by grid).
	Skipping thread 186 of domain 1 (not referenced by grid).
	Skipping thread 187 of domain 1 (not referenced by grid).
	Skipping thread 188 of domain 1 (not referenced by grid).
	Skipping thread 189 of domain 1 (not referenced by grid).
	Skipping thread 190 of domain 1 (not referenced by grid).
	Skipping thread 191 of domain 1 (not referenced by grid).
	Skipping thread 192 of domain 1 (not referenced by grid).
	Skipping thread 193 of domain 1 (not referenced by grid).
	Skipping thread 194 of domain 1 (not referenced by grid).
	Skipping thread 195 of domain 1 (not referenced by grid).
	Skipping thread 196 of domain 1 (not referenced by grid).
	Skipping thread 197 of domain 1 (not referenced by grid).
	Skipping thread 198 of domain 1 (not referenced by grid).
	Skipping thread 199 of domain 1 (not referenced by grid).
	Skipping thread 200 of domain 1 (not referenced by grid).
	Skipping thread 201 of domain 1 (not referenced by grid).
	Skipping thread 202 of domain 1 (not referenced by grid).
	Skipping thread 203 of domain 1 (not referenced by grid).
	Skipping thread 204 of domain 1 (not referenced by grid).
	Skipping thread 205 of domain 1 (not referenced by grid).
	Skipping thread 206 of domain 1 (not referenced by grid).
	Skipping thread 207 of domain 1 (not referenced by grid).
	Skipping thread 208 of domain 1 (not referenced by grid).
	Skipping thread 209 of domain 1 (not referenced by grid).
	Skipping thread 210 of domain 1 (not referenced by grid).
	Skipping thread 211 of domain 1 (not referenced by grid).
	Skipping thread 212 of domain 1 (not referenced by grid).
	Skipping thread 213 of domain 1 (not referenced by grid).
	Skipping thread 214 of domain 1 (not referenced by grid).
	Skipping thread 215 of domain 1 (not referenced by grid).
	Skipping thread 216 of domain 1 (not referenced by grid).
	Skipping thread 217 of domain 1 (not referenced by grid).
	Skipping thread 218 of domain 1 (not referenced by grid).
	Skipping thread 219 of domain 1 (not referenced by grid).
	Skipping thread 220 of domain 1 (not referenced by grid).
	Skipping thread 221 of domain 1 (not referenced by grid).
	Skipping thread 222 of domain 1 (not referenced by grid).
	Skipping thread 223 of domain 1 (not referenced by grid).
	Skipping thread 224 of domain 1 (not referenced by grid).
	Skipping thread 225 of domain 1 (not referenced by grid).
	Skipping thread 226 of domain 1 (not referenced by grid).
	Skipping thread 227 of domain 1 (not referenced by grid).
	Skipping thread 228 of domain 1 (not referenced by grid).
	Skipping thread 229 of domain 1 (not referenced by grid).
	Skipping thread 230 of domain 1 (not referenced by grid).
	Skipping thread 231 of domain 1 (not referenced by grid).
	Skipping thread 232 of domain 1 (not referenced by grid).
	Skipping thread 233 of domain 1 (not referenced by grid).
	Skipping thread 234 of domain 1 (not referenced by grid).
	Skipping thread 235 of domain 1 (not referenced by grid).
	Skipping thread 236 of domain 1 (not referenced by grid).
	Skipping thread 237 of domain 1 (not referenced by grid).
	Skipping thread 238 of domain 1 (not referenced by grid).
	Skipping thread 239 of domain 1 (not referenced by grid).
	Skipping thread 240 of domain 1 (not referenced by grid).
	Skipping thread 241 of domain 1 (not referenced by grid).
	Skipping thread 242 of domain 1 (not referenced by grid).
	Skipping thread 243 of domain 1 (not referenced by grid).
	Skipping thread 244 of domain 1 (not referenced by grid).
	Skipping thread 245 of domain 1 (not referenced by grid).
	Skipping thread 246 of domain 1 (not referenced by grid).
	Skipping thread 247 of domain 1 (not referenced by grid).
	Skipping thread 248 of domain 1 (not referenced by grid).
	Skipping thread 249 of domain 1 (not referenced by grid).
	Skipping thread 250 of domain 1 (not referenced by grid).
	Skipping thread 251 of domain 1 (not referenced by grid).
	Skipping thread 252 of domain 1 (not referenced by grid).
	Skipping thread 253 of domain 1 (not referenced by grid).
	Skipping thread 254 of domain 1 (not referenced by grid).
	Skipping thread 255 of domain 1 (not referenced by grid).
	Skipping thread 256 of domain 1 (not referenced by grid).
	Skipping thread 257 of domain 1 (not referenced by grid).
	Skipping thread 258 of domain 1 (not referenced by grid).
	Skipping thread 356 of domain 1 (not referenced by grid).
	Skipping thread 360 of domain 1 (not referenced by grid).
	Skipping thread 364 of domain 1 (not referenced by grid).
	Skipping thread 368 of domain 1 (not referenced by grid).
	Skipping thread 372 of domain 1 (not referenced by grid).
	Skipping thread 376 of domain 1 (not referenced by grid).
	Skipping thread 380 of domain 1 (not referenced by grid).
	Skipping thread 384 of domain 1 (not referenced by grid).
	Skipping thread 388 of domain 1 (not referenced by grid).
	Skipping thread 392 of domain 1 (not referenced by grid).
	Skipping thread 396 of domain 1 (not referenced by grid).
	Skipping thread 400 of domain 1 (not referenced by grid).
	Skipping thread 404 of domain 1 (not referenced by grid).
	Skipping thread 408 of domain 1 (not referenced by grid).
	Skipping thread 412 of domain 1 (not referenced by grid).
	Skipping thread 416 of domain 1 (not referenced by grid).
	Skipping thread 420 of domain 1 (not referenced by grid).
	Skipping thread 424 of domain 1 (not referenced by grid).
	Skipping thread 428 of domain 1 (not referenced by grid).
	Skipping thread 432 of domain 1 (not referenced by grid).
	Skipping thread 436 of domain 1 (not referenced by grid).
	Skipping thread 440 of domain 1 (not referenced by grid).
	Skipping thread 444 of domain 1 (not referenced by grid).
	Skipping thread 448 of domain 1 (not referenced by grid).
	Skipping thread 452 of domain 1 (not referenced by grid).
	Skipping thread 456 of domain 1 (not referenced by grid).
	Skipping thread 460 of domain 1 (not referenced by grid).
	Skipping thread 464 of domain 1 (not referenced by grid).
	Skipping thread 468 of domain 1 (not referenced by grid).
	Skipping thread 472 of domain 1 (not referenced by grid).
	Skipping thread 476 of domain 1 (not referenced by grid).
	Skipping thread 480 of domain 1 (not referenced by grid).
	Skipping thread 484 of domain 1 (not referenced by grid).
	Skipping thread 488 of domain 1 (not referenced by grid).
	Skipping thread 492 of domain 1 (not referenced by grid).
	Skipping thread 496 of domain 1 (not referenced by grid).
	Skipping thread 500 of domain 1 (not referenced by grid).
	Skipping thread 504 of domain 1 (not referenced by grid).
	Skipping thread 508 of domain 1 (not referenced by grid).
	Skipping thread 512 of domain 1 (not referenced by grid).
	Skipping thread 516 of domain 1 (not referenced by grid).
	Skipping thread 520 of domain 1 (not referenced by grid).
	Skipping thread 524 of domain 1 (not referenced by grid).
	Skipping thread 528 of domain 1 (not referenced by grid).
	Skipping thread 532 of domain 1 (not referenced by grid).
	Skipping thread 536 of domain 1 (not referenced by grid).
	Skipping thread 540 of domain 1 (not referenced by grid).
	Skipping thread 544 of domain 1 (not referenced by grid).
	Skipping thread 548 of domain 1 (not referenced by grid).
	Skipping thread 552 of domain 1 (not referenced by grid).
	Skipping thread 556 of domain 1 (not referenced by grid).
	Skipping thread 560 of domain 1 (not referenced by grid).
	Skipping thread 564 of domain 1 (not referenced by grid).
	Skipping thread 568 of domain 1 (not referenced by grid).
	Skipping thread 572 of domain 1 (not referenced by grid).
	Skipping thread 576 of domain 1 (not referenced by grid).
	Skipping thread 580 of domain 1 (not referenced by grid).
	Skipping thread 584 of domain 1 (not referenced by grid).
	Skipping thread 588 of domain 1 (not referenced by grid).
	Skipping thread 592 of domain 1 (not referenced by grid).
	Skipping thread 596 of domain 1 (not referenced by grid).
	Skipping thread 600 of domain 1 (not referenced by grid).
	Skipping thread 604 of domain 1 (not referenced by grid).
	Skipping thread 608 of domain 1 (not referenced by grid).
	Skipping thread 612 of domain 1 (not referenced by grid).
	Skipping thread 616 of domain 1 (not referenced by grid).
	Skipping thread 620 of domain 1 (not referenced by grid).
	Skipping thread 624 of domain 1 (not referenced by grid).
	Skipping thread 628 of domain 1 (not referenced by grid).
	Skipping thread 632 of domain 1 (not referenced by grid).
	Skipping thread 636 of domain 1 (not referenced by grid).
	Skipping thread 640 of domain 1 (not referenced by grid).
	Skipping thread 81163 of domain 1 (not referenced by grid).
	Skipping thread 81164 of domain 1 (not referenced by grid).
	Skipping thread 81166 of domain 1 (not referenced by grid).
	Skipping thread 81168 of domain 1 (not referenced by grid).
	Skipping thread 81170 of domain 1 (not referenced by grid).
	Skipping thread 81171 of domain 1 (not referenced by grid).
	Skipping thread 81173 of domain 1 (not referenced by grid).
	Skipping thread 81175 of domain 1 (not referenced by grid).
	Skipping thread 81177 of domain 1 (not referenced by grid).
	Skipping thread 81179 of domain 1 (not referenced by grid).
	Skipping thread 81181 of domain 1 (not referenced by grid).
	Skipping thread 81183 of domain 1 (not referenced by grid).
	Skipping thread 81185 of domain 1 (not referenced by grid).
	Skipping thread 81187 of domain 1 (not referenced by grid).
	Skipping thread 81189 of domain 1 (not referenced by grid).
	Skipping thread 81191 of domain 1 (not referenced by grid).
	Skipping thread 81193 of domain 1 (not referenced by grid).
	Skipping thread 81195 of domain 1 (not referenced by grid).
	Skipping thread 81197 of domain 1 (not referenced by grid).
	Skipping thread 81199 of domain 1 (not referenced by grid).
	Skipping thread 81201 of domain 1 (not referenced by grid).
	Skipping thread 81203 of domain 1 (not referenced by grid).
	Skipping thread 81205 of domain 1 (not referenced by grid).
	Skipping thread 81207 of domain 1 (not referenced by grid).
	Skipping thread 81209 of domain 1 (not referenced by grid).
	Skipping thread 81211 of domain 1 (not referenced by grid).
	Skipping thread 81213 of domain 1 (not referenced by grid).
	Skipping thread 81215 of domain 1 (not referenced by grid).
	Skipping thread 81217 of domain 1 (not referenced by grid).
	Skipping thread 81219 of domain 1 (not referenced by grid).
	Skipping thread 81221 of domain 1 (not referenced by grid).
	Skipping thread 81223 of domain 1 (not referenced by grid).
	Skipping thread 81225 of domain 1 (not referenced by grid).
	Skipping thread 81227 of domain 1 (not referenced by grid).
	Skipping thread 81229 of domain 1 (not referenced by grid).
	Skipping thread 81231 of domain 1 (not referenced by grid).
	Skipping thread 81233 of domain 1 (not referenced by grid).
	Skipping thread 81235 of domain 1 (not referenced by grid).
	Skipping thread 81237 of domain 1 (not referenced by grid).
	Skipping thread 81239 of domain 1 (not referenced by grid).
	Skipping thread 81241 of domain 1 (not referenced by grid).
	Skipping thread 81243 of domain 1 (not referenced by grid).
	Skipping thread 81245 of domain 1 (not referenced by grid).
	Skipping thread 81247 of domain 1 (not referenced by grid).
	Skipping thread 81249 of domain 1 (not referenced by grid).
	Skipping thread 81251 of domain 1 (not referenced by grid).
	Skipping thread 81253 of domain 1 (not referenced by grid).
	Skipping thread 81255 of domain 1 (not referenced by grid).
	Skipping thread 81257 of domain 1 (not referenced by grid).
	Skipping thread 81259 of domain 1 (not referenced by grid).
	Skipping thread 81261 of domain 1 (not referenced by grid).
	Skipping thread 81263 of domain 1 (not referenced by grid).
	Skipping thread 81265 of domain 1 (not referenced by grid).
	Skipping thread 81267 of domain 1 (not referenced by grid).
	Skipping thread 81269 of domain 1 (not referenced by grid).
	Skipping thread 81271 of domain 1 (not referenced by grid).
	Skipping thread 81273 of domain 1 (not referenced by grid).
	Skipping thread 81275 of domain 1 (not referenced by grid).
	Skipping thread 81277 of domain 1 (not referenced by grid).
	Skipping thread 81279 of domain 1 (not referenced by grid).
	Skipping thread 81281 of domain 1 (not referenced by grid).
	Skipping thread 81283 of domain 1 (not referenced by grid).
	Skipping thread 81285 of domain 1 (not referenced by grid).
	Skipping thread 81287 of domain 1 (not referenced by grid).
	Skipping thread 81289 of domain 1 (not referenced by grid).
	Skipping thread 81291 of domain 1 (not referenced by grid).
	Skipping thread 81293 of domain 1 (not referenced by grid).
	Skipping thread 81295 of domain 1 (not referenced by grid).
	Skipping thread 81297 of domain 1 (not referenced by grid).
	Skipping thread 81299 of domain 1 (not referenced by grid).
	Skipping thread 81301 of domain 1 (not referenced by grid).
	Skipping thread 81303 of domain 1 (not referenced by grid).
	Skipping thread 81305 of domain 1 (not referenced by grid).
	Skipping thread 81307 of domain 1 (not referenced by grid).
	Skipping thread 81309 of domain 1 (not referenced by grid).
	Skipping thread 81311 of domain 1 (not referenced by grid).
	Skipping thread 81313 of domain 1 (not referenced by grid).
	Skipping thread 81315 of domain 1 (not referenced by grid).
	Skipping thread 81317 of domain 1 (not referenced by grid).
	Skipping thread 81318 of domain 1 (not referenced by grid).
	Skipping thread 81320 of domain 1 (not referenced by grid).
	Skipping thread 81322 of domain 1 (not referenced by grid).
	Skipping thread 81324 of domain 1 (not referenced by grid).
	Skipping thread 81325 of domain 1 (not referenced by grid).
	Skipping thread 81327 of domain 1 (not referenced by grid).
	Skipping thread 81329 of domain 1 (not referenced by grid).
	Skipping thread 81331 of domain 1 (not referenced by grid).
	Skipping thread 81333 of domain 1 (not referenced by grid).
	Skipping thread 81335 of domain 1 (not referenced by grid).
	Skipping thread 81337 of domain 1 (not referenced by grid).
	Skipping thread 81339 of domain 1 (not referenced by grid).
	Skipping thread 81341 of domain 1 (not referenced by grid).
	Skipping thread 81343 of domain 1 (not referenced by grid).
	Skipping thread 81345 of domain 1 (not referenced by grid).
	Skipping thread 81347 of domain 1 (not referenced by grid).
	Skipping thread 81349 of domain 1 (not referenced by grid).
	Skipping thread 81351 of domain 1 (not referenced by grid).
	Skipping thread 81353 of domain 1 (not referenced by grid).
	Skipping thread 81355 of domain 1 (not referenced by grid).
	Skipping thread 81357 of domain 1 (not referenced by grid).
	Skipping thread 81359 of domain 1 (not referenced by grid).
	Skipping thread 81361 of domain 1 (not referenced by grid).
	Skipping thread 81363 of domain 1 (not referenced by grid).
	Skipping thread 81365 of domain 1 (not referenced by grid).
	Skipping thread 81367 of domain 1 (not referenced by grid).
	Skipping thread 81369 of domain 1 (not referenced by grid).
	Skipping thread 81371 of domain 1 (not referenced by grid).
	Skipping thread 81373 of domain 1 (not referenced by grid).
	Skipping thread 81375 of domain 1 (not referenced by grid).
	Skipping thread 81377 of domain 1 (not referenced by grid).
	Skipping thread 81379 of domain 1 (not referenced by grid).
	Skipping thread 81381 of domain 1 (not referenced by grid).
	Skipping thread 81383 of domain 1 (not referenced by grid).
	Skipping thread 81385 of domain 1 (not referenced by grid).
	Skipping thread 81387 of domain 1 (not referenced by grid).
	Skipping thread 81389 of domain 1 (not referenced by grid).
	Skipping thread 81391 of domain 1 (not referenced by grid).
	Skipping thread 81393 of domain 1 (not referenced by grid).
	Skipping thread 81395 of domain 1 (not referenced by grid).
	Skipping thread 81397 of domain 1 (not referenced by grid).
	Skipping thread 81399 of domain 1 (not referenced by grid).
	Skipping thread 81401 of domain 1 (not referenced by grid).
	Skipping thread 81403 of domain 1 (not referenced by grid).
	Skipping thread 81405 of domain 1 (not referenced by grid).
	Skipping thread 81407 of domain 1 (not referenced by grid).
	Skipping thread 81409 of domain 1 (not referenced by grid).
	Skipping thread 81411 of domain 1 (not referenced by grid).
	Skipping thread 81413 of domain 1 (not referenced by grid).
	Skipping thread 81415 of domain 1 (not referenced by grid).
	Skipping thread 81417 of domain 1 (not referenced by grid).
	Skipping thread 81419 of domain 1 (not referenced by grid).
	Skipping thread 81421 of domain 1 (not referenced by grid).
	Skipping thread 81423 of domain 1 (not referenced by grid).
	Skipping thread 81425 of domain 1 (not referenced by grid).
	Skipping thread 81427 of domain 1 (not referenced by grid).
	Skipping thread 81429 of domain 1 (not referenced by grid).
	Skipping thread 81431 of domain 1 (not referenced by grid).
	Skipping thread 81433 of domain 1 (not referenced by grid).
	Skipping thread 81435 of domain 1 (not referenced by grid).
	Skipping thread 81437 of domain 1 (not referenced by grid).
	Skipping thread 81439 of domain 1 (not referenced by grid).
	Skipping thread 81441 of domain 1 (not referenced by grid).
	Skipping thread 81443 of domain 1 (not referenced by grid).
	Skipping thread 81445 of domain 1 (not referenced by grid).
	Skipping thread 81447 of domain 1 (not referenced by grid).
	Skipping thread 81449 of domain 1 (not referenced by grid).
	Skipping thread 81451 of domain 1 (not referenced by grid).
	Skipping thread 81453 of domain 1 (not referenced by grid).
	Skipping thread 81455 of domain 1 (not referenced by grid).
	Skipping thread 81457 of domain 1 (not referenced by grid).
	Skipping thread 81459 of domain 1 (not referenced by grid).
	Skipping thread 81461 of domain 1 (not referenced by grid).
	Skipping thread 81463 of domain 1 (not referenced by grid).
	Skipping thread 81465 of domain 1 (not referenced by grid).
	Skipping thread 81467 of domain 1 (not referenced by grid).
	Skipping thread 81469 of domain 1 (not referenced by grid).
	Skipping thread 81471 of domain 1 (not referenced by grid).
	Skipping thread 81473 of domain 1 (not referenced by grid).
	Skipping thread 81475 of domain 1 (not referenced by grid).
	Skipping thread 81477 of domain 1 (not referenced by grid).
	Skipping thread 81479 of domain 1 (not referenced by grid).
	Skipping thread 81481 of domain 1 (not referenced by grid).
	Skipping thread 81483 of domain 1 (not referenced by grid).
	Skipping thread 81485 of domain 1 (not referenced by grid).
	Skipping thread 81487 of domain 1 (not referenced by grid).
	interior--solid:2
	interior--cells2-walls:20
	interior--cells2-walls:70
	interior--cells2-walls:44
	interior--cells2-walls:45
	interior--fluid:2
	interior--cells2-walls:69
	interior--default-default
	interior--cells2-walls:58
	interior--cells2-walls:47
	interior--cells2-walls:21
	interior--cells2-walls:23
	interior--cells2-walls:46
	interior--cells2-walls:22
	interior--default-default-1
	interior--cells2-walls:71
	interior--cells2-walls:30
	interior--cells2-walls:31
	interior--cells2-walls:51
	interior--cells2-walls:32
	interior--cells2-walls:8
	interior--cells2-walls:9
	interior--cells2-walls:33
	interior--cells2-walls:7
	interior--cells2-walls:64
	interior--cells2-walls:63
	interior--cells2-walls:62
	interior--cells2-walls:35
	interior--cells2-walls:52
	interior--cells2-walls:6
	interior--cells2-walls:34
	interior--cells2-walls:12
	interior--cells2-walls:40
	interior--cells2-walls:14
	interior--cells2-walls:41
	interior--cells2-walls:38
	interior--cells2-walls:16
	interior--cells2-walls:13
	interior--cells2-walls:15
	interior--cells2-walls:17
	interior--cells2-walls:67
	interior--cells2-walls:56
	interior--cells2-walls:66
	interior--cells2-walls:39
	interior--cells2-walls:55
	interior--cells2-walls:54
	interior--cells2-walls:48
	interior--cells2-walls:25
	interior--cells2-walls:49
	interior--cells2-walls:59
	interior--cells2-walls:60
	interior--cells2-walls:2
	interior--cells2-walls
	interior--cells2-walls:3
	interior--cells2-walls:26
	interior--solid
	interior--cells2-walls:24
	interior--cells2-walls:1
	interior--cells2-walls:27
	interior--cells2-walls:53
	interior--cells2-walls:19
	interior--cells2-walls:29
	interior--cells2-walls:43
	interior--cells2-walls:4
	interior--cells2-walls:42
	interior--cells2-walls:10
	interior--cells2-walls:18
	interior--cells2-walls:50
	interior--cells2-walls:57
	interior--cells2-walls:61
	interior--cells2-walls:65
	interior--cells2-walls:37
	interior--cells2-walls:28
	interior--cells2-walls:5
	interior--cells2-walls:11
	interior--cells2-walls:68
	interior--cells2-walls:36
	interior--with-holes-the-air-region
	default-default:1-with-holes-the-air-region
	default-default-with-holes-the-air-region
	solid-with-holes-the-air-region_1
	cells2-walls:10-with-holes-the-air-region
	cells2-walls:37-with-holes-the-air-region
	cells2-walls:60-with-holes-the-air-region
	cells2-walls:54-with-holes-the-air-region
	cells2-walls:55-with-holes-the-air-region
	cells2-walls:30-with-holes-the-air-region
	cells2-walls:66-with-holes-the-air-region
	cells2-walls:14-with-holes-the-air-region
	cells2-walls:43-with-holes-the-air-region
	cells2-walls:44-with-holes-the-air-region
	cells2-walls:21-with-holes-the-air-region
	cells2-walls:2-with-holes-the-air-region
	cells2-walls:32-with-holes-the-air-region
	cells2-walls:39-with-holes-the-air-region
	cells2-walls:45-with-holes-the-air-region
	cells2-walls:47-with-holes-the-air-region
	cells2-walls:58-with-holes-the-air-region
	cells2-walls:15-with-holes-the-air-region
	cells2-walls:19-with-holes-the-air-region
	cells2-walls:27-with-holes-the-air-region
	cells2-walls:46-with-holes-the-air-region
	cells2-walls:38-with-holes-the-air-region
	cells2-walls:8-with-holes-the-air-region
	cells2-walls:12-with-holes-the-air-region
	cells2-walls:11-with-holes-the-air-region
	cells2-walls:22-with-holes-the-air-region
	cells2-walls:40-with-holes-the-air-region
	cells2-walls:63-with-holes-the-air-region
	cells2-walls:4-with-holes-the-air-region
	cells2-walls:13-with-holes-the-air-region
	cells2-walls:50-with-holes-the-air-region
	cells2-walls:20-with-holes-the-air-region
	cells2-walls:31-with-holes-the-air-region
	cells2-walls:51-with-holes-the-air-region
	cells2-walls:61-with-holes-the-air-region
	cells2-walls:3-with-holes-the-air-region
	cells2-walls:64-with-holes-the-air-region
	cells2-walls:70-with-holes-the-air-region
	cells2-walls:17-with-holes-the-air-region
	cells2-walls:33-with-holes-the-air-region
	cells2-walls:41-with-holes-the-air-region
	cells2-walls:6-with-holes-the-air-region
	cells2-walls:9-with-holes-the-air-region
	cells2-walls:25-with-holes-the-air-region
	cells2-walls:34-with-holes-the-air-region
	cells2-walls:49-with-holes-the-air-region
	cells2-walls:18-with-holes-the-air-region
	cells2-walls:48-with-holes-the-air-region
	cells2-walls-with-holes-the-air-region
	cells2-walls:5-with-holes-the-air-region
	cells2-walls:29-with-holes-the-air-region
	cells2-walls:71-with-holes-the-air-region
	cells2-walls:16-with-holes-the-air-region
	cells2-walls:52-with-holes-the-air-region
	cells2-walls:26-with-holes-the-air-region
	cells2-walls:23-with-holes-the-air-region
	cells2-walls:36-with-holes-the-air-region
	cells2-walls:57-with-holes-the-air-region
	cells2-walls:7-with-holes-the-air-region
	cells2-walls:56-with-holes-the-air-region
	cells2-walls:59-with-holes-the-air-region
	cells2-walls:24-with-holes-the-air-region
	cells2-walls:28-with-holes-the-air-region
	cells2-walls:53-with-holes-the-air-region
	cells2-walls:42-with-holes-the-air-region
	cells2-walls:67-with-holes-the-air-region
	cells2-walls:68-with-holes-the-air-region
	cells2-walls:65-with-holes-the-air-region
	cells2-walls:35-with-holes-the-air-region
	cells2-walls:69-with-holes-the-air-region
	cells2-walls:62-with-holes-the-air-region
	cells2-walls:1-with-holes-the-air-region
	default-default-1-fluid:2
	default-default-solid:2_1
	inlet.1
	solid.1
	inlet
	solid:1:1
	walls.3
	outlet
	walls.2
	default-default.1
	cells-cells2-walls.68
	cells-cells2-walls.67
	cells-cells2-walls.66
	cells-cells2-walls.65
	cells-cells2-walls.63
	cells-cells2-walls.62
	cells-cells2-walls.61
	cells-cells2-walls.60
	cells-cells2-walls.59
	cells-cells2-walls.58
	cells-cells2-walls.57
	cells-cells2-walls.56
	cells-cells2-walls.55
	cells-cells2-walls.54
	cells-cells2-walls.52
	cells-cells2-walls.51
	cells-cells2-walls.50
	cells-cells2-walls.49
	cells-cells2-walls.48
	cells-cells2-walls.47
	cells-cells2-walls.46
	cells-cells2-walls.45
	cells-cells2-walls.44
	cells-cells2-walls.43
	cells-cells2-walls.41
	cells-cells2-walls.40
	cells-cells2-walls.39
	cells-cells2-walls.38
	cells-cells2-walls.37
	cells-cells2-walls.36
	cells-cells2-walls.35
	cells-cells2-walls.34
	cells-cells2-walls.33
	cells-cells2-walls.32
	cells-cells2-walls.30
	cells-cells2-walls.29
	cells-cells2-walls.28
	cells-cells2-walls.27
	cells-cells2-walls.26
	cells-cells2-walls.25
	cells-cells2-walls.24
	cells-cells2-walls.23
	cells-cells2-walls.22
	cells-cells2-walls.21
	cells-cells2-walls.19
	cells-cells2-walls.18
	cells-cells2-walls.17
	cells-cells2-walls.16
	cells-cells2-walls.15
	cells-cells2-walls.14
	cells-cells2-walls.13
	cells-cells2-walls.12
	cells-cells2-walls.11
	cells-cells2-walls.10
	cells-cells2-walls.9
	cells-cells2-walls.8
	cells-cells2-walls.7
	cells-cells2-walls.6
	cells-cells2-walls.5
	cells-cells2-walls.4
	cells-cells2-walls.3
	cells-cells2-walls.2
	cells-cells2-walls.1
	cells-cells2-walls
	cells-cells2-walls.71
	cells-cells2-walls.70
	cells-cells2-walls.69
	cells-cells2-walls.64
	cells-cells2-walls.53
	cells-cells2-walls.42
	cells-cells2-walls.31
	cells-cells2-walls.20
	walls
	right-fan-inlet
	walls.1
	default-default:1
	solid
	fluid:2
	solid:2
	with-holes-the-air-region
	cells2-walls:36
	cells2-walls:68
	cells2-walls:11
	cells2-walls:5
	cells2-walls:28
	cells2-walls:37
	cells2-walls:65
	cells2-walls:61
	cells2-walls:57
	cells2-walls:50
	cells2-walls:18
	cells2-walls:10
	cells2-walls:42
	cells2-walls:4
	cells2-walls:43
	cells2-walls:29
	cells2-walls:19
	cells2-walls:53
	cells2-walls:27
	cells2-walls:1
	cells2-walls:24
	cells2-walls:26
	cells2-walls:3
	cells2-walls
	cells2-walls:2
	cells2-walls:60
	cells2-walls:59
	cells2-walls:49
	cells2-walls:25
	cells2-walls:48
	cells2-walls:54
	cells2-walls:55
	cells2-walls:39
	cells2-walls:66
	cells2-walls:56
	cells2-walls:67
	cells2-walls:17
	cells2-walls:15
	cells2-walls:13
	cells2-walls:16
	cells2-walls:38
	cells2-walls:41
	cells2-walls:14
	cells2-walls:40
	cells2-walls:12
	cells2-walls:34
	cells2-walls:6
	cells2-walls:52
	cells2-walls:35
	cells2-walls:62
	cells2-walls:63
	cells2-walls:64
	cells2-walls:7
	cells2-walls:33
	cells2-walls:9
	cells2-walls:8
	cells2-walls:32
	cells2-walls:51
	cells2-walls:31
	cells2-walls:30
	cells2-walls:71
	default-default-1
	cells2-walls:22
	cells2-walls:46
	cells2-walls:23
	cells2-walls:21
	cells2-walls:47
	cells2-walls:58
	default-default
	cells2-walls:69
	cells2-walls:45
	cells2-walls:44
	cells2-walls:70
	cells2-walls:20
     parallel,
Done.

Preparing mesh for display...
Done.
