Transcript Start Time:  19:29:03, 05 Sep 2025 Pacific Daylight Time 
Current Directory: "C:\Users\Owner\Documents\GitHub\Cooling_Modelling\Subpack Conjugate Heat Transfer\Third Test"

Build Time: Jun 16 2025 10:42:46 EDT 
Executable Path: C:/PROGRA~1/ANSYSI~1/ANSYSS~1/v252/fluent/ntbin/win64/fluent.exe

------------------------------------------------------------------------------------------
ID    Hostname         Core  O.S.         PID    Vendor                                  
------------------------------------------------------------------------------------------
n3    LAPTOP-DHFQ1JFI  4/16  Windows-x64  26164  AMD Ryzen 7 6800H with Radeon Graphics  
n2    LAPTOP-DHFQ1JFI  3/16  Windows-x64  9556   AMD Ryzen 7 6800H with Radeon Graphics  
n1    LAPTOP-DHFQ1JFI  2/16  Windows-x64  5240   AMD Ryzen 7 6800H with Radeon Graphics  
n0*   LAPTOP-DHFQ1JFI  1/16  Windows-x64  2948   AMD Ryzen 7 6800H with Radeon Graphics  
host  LAPTOP-DHFQ1JFI        Windows-x64  22440  AMD Ryzen 7 6800H with Radeon Graphics  

MPI Option Selected: intel
Selected system interconnect: default
------------------------------------------------------------------------------------------

Cortex Process ID: 24504 
License Server Path: () 
Reading "C:\Users\Owner\Documents\GitHub\Cooling_Modelling\Subpack Conjugate Heat Transfer\Third Test\why is it crashing_files\dp0\FFF\Fluent\FFF.2.msh.h5" ...
3D mesh
nodes: 399775
edges: 68046
faces: 703520 
cells: 0 
reading 683 node zones
reading 321 edge zones
reading 193 face zones
updating sub-domains...
done.
generating pointers...done.
extracting boundary entities...
 399775 boundary nodes.
 703520 boundary faces.
 193 boundary face zones.
done.
analyzing boundary connectivity...done.
Fast-loading "C:\PROGRA~1\ANSYSI~1\ANSYSS~1\v252\fluent\fluent25.2.0\\addons\afd\lib\hdfio.bin"
Done.
Writing "C:\Users\Owner\Documents\GitHub\Cooling_Modelling\Subpack Conjugate Heat Transfer\Third Test\why is it crashing_files\dp0\FFF\Fluent\FFF.2.msh.h5" ...
writing 0 node zones
writing 0 edge zones 
writing 0 face zones 
done.Transcript Stop Time:  19:29:14, 05 Sep 2025 Pacific Daylight Time 
Total Transcript Time: 0 Minute 10 Second.
